<routes>
            <vType accel="1.0" decel="5.0" id="Car" length="4.0" maxSpeed="50.0" sigma="0.0" departSpeed="13.89"/>

            <route id="n2s" edges="gneE19 -gneE18" />
            <route id="s2n" edges="gneE18 -gneE19" />
            <route id="w2e" edges="gneE16 -gneE32 -gneE31" />
            <route id="n2s2" edges="-gneE30 -gneE29" />
            <route id="s2n2" edges="gneE29 gneE30" />

            
    <vehicle id="right_0" type="Car" route="s2n" depart="0" />
    <vehicle id="left_1" type="Car" route="s2n2" depart="1" />
    <vehicle id="right_2" type="Car" route="n2s" depart="2" />
    <vehicle id="right_3" type="Car" route="s2n" depart="2" />
    <vehicle id="left_4" type="Car" route="n2s2" depart="2" />
    <vehicle id="right_5" type="Car" route="n2s" depart="3" />
    <vehicle id="left_6" type="Car" route="n2s2" depart="3" />
    <vehicle id="right_7" type="Car" route="n2s" depart="4" />
    <vehicle id="right_8" type="Car" route="s2n" depart="4" />
    <vehicle id="left_9" type="Car" route="n2s2" depart="4" />
    <vehicle id="left_10" type="Car" route="n2s2" depart="5" />
    <vehicle id="ego" type="Car" route="w2e" depart="5" />
    <vehicle id="right_12" type="Car" route="s2n" depart="6" />
    <vehicle id="right_13" type="Car" route="s2n" depart="7" />
    <vehicle id="left_14" type="Car" route="n2s2" depart="7" />
    <vehicle id="right_15" type="Car" route="s2n" depart="8" />
    <vehicle id="right_16" type="Car" route="s2n" depart="9" />
    <vehicle id="left_17" type="Car" route="n2s2" depart="9" />
    <vehicle id="left_18" type="Car" route="s2n2" depart="9" />
    <vehicle id="left_19" type="Car" route="n2s2" depart="10" />
    <vehicle id="left_20" type="Car" route="s2n2" depart="10" />
    <vehicle id="right_21" type="Car" route="n2s" depart="11" />
    <vehicle id="right_22" type="Car" route="s2n" depart="11" />
    <vehicle id="left_23" type="Car" route="n2s2" depart="12" />
    <vehicle id="right_24" type="Car" route="n2s" depart="13" />
    <vehicle id="right_25" type="Car" route="s2n" depart="13" />
    <vehicle id="left_26" type="Car" route="s2n2" depart="14" />
    <vehicle id="left_27" type="Car" route="s2n2" depart="15" />
    <vehicle id="right_28" type="Car" route="s2n" depart="16" />
    <vehicle id="right_29" type="Car" route="s2n" depart="17" />
    <vehicle id="right_30" type="Car" route="n2s" depart="18" />
    <vehicle id="left_31" type="Car" route="s2n2" depart="18" />
    <vehicle id="right_32" type="Car" route="n2s" depart="19" />
    <vehicle id="right_33" type="Car" route="n2s" depart="21" />
    <vehicle id="right_34" type="Car" route="s2n" depart="21" />
    <vehicle id="left_35" type="Car" route="s2n2" depart="21" />
    <vehicle id="left_36" type="Car" route="s2n2" depart="22" />
    <vehicle id="left_37" type="Car" route="n2s2" depart="23" />
    <vehicle id="left_38" type="Car" route="s2n2" depart="25" />
    <vehicle id="right_39" type="Car" route="s2n" depart="26" />
    <vehicle id="left_40" type="Car" route="s2n2" depart="26" />
    <vehicle id="right_41" type="Car" route="s2n" depart="28" />
    <vehicle id="left_42" type="Car" route="n2s2" depart="28" />
    <vehicle id="left_43" type="Car" route="s2n2" depart="28" />
    <vehicle id="right_44" type="Car" route="s2n" depart="29" />
    <vehicle id="left_45" type="Car" route="s2n2" depart="29" />
    <vehicle id="left_46" type="Car" route="s2n2" depart="30" />
    <vehicle id="left_47" type="Car" route="n2s2" depart="31" />
    <vehicle id="left_48" type="Car" route="s2n2" depart="31" />
    <vehicle id="right_49" type="Car" route="s2n" depart="32" />
    <vehicle id="left_50" type="Car" route="n2s2" depart="32" />
    <vehicle id="left_51" type="Car" route="s2n2" depart="32" />
    <vehicle id="right_52" type="Car" route="n2s" depart="34" />
    <vehicle id="right_53" type="Car" route="s2n" depart="34" />
    <vehicle id="left_54" type="Car" route="s2n2" depart="34" />
    <vehicle id="right_55" type="Car" route="s2n" depart="35" />
    <vehicle id="left_56" type="Car" route="s2n2" depart="35" />
    <vehicle id="right_57" type="Car" route="n2s" depart="36" />
    <vehicle id="left_58" type="Car" route="s2n2" depart="36" />
    <vehicle id="right_59" type="Car" route="n2s" depart="37" />
    <vehicle id="right_60" type="Car" route="s2n" depart="37" />
    <vehicle id="left_61" type="Car" route="n2s2" depart="37" />
    <vehicle id="right_62" type="Car" route="n2s" depart="38" />
    <vehicle id="left_63" type="Car" route="n2s2" depart="38" />
    <vehicle id="right_64" type="Car" route="n2s" depart="39" />
    <vehicle id="right_65" type="Car" route="s2n" depart="39" />
    <vehicle id="right_66" type="Car" route="n2s" depart="40" />
    <vehicle id="right_67" type="Car" route="s2n" depart="40" />
    <vehicle id="left_68" type="Car" route="n2s2" depart="40" />
    <vehicle id="right_69" type="Car" route="n2s" depart="41" />
    <vehicle id="right_70" type="Car" route="n2s" depart="42" />
    <vehicle id="right_71" type="Car" route="s2n" depart="42" />
    <vehicle id="right_72" type="Car" route="n2s" depart="43" />
    <vehicle id="left_73" type="Car" route="n2s2" depart="43" />
    <vehicle id="left_74" type="Car" route="s2n2" depart="43" />
    <vehicle id="left_75" type="Car" route="s2n2" depart="44" />
    <vehicle id="right_76" type="Car" route="n2s" depart="45" />
    <vehicle id="left_77" type="Car" route="s2n2" depart="46" />
    <vehicle id="left_78" type="Car" route="s2n2" depart="49" />
    <vehicle id="left_79" type="Car" route="s2n2" depart="51" />
    <vehicle id="left_80" type="Car" route="n2s2" depart="52" />
    <vehicle id="left_81" type="Car" route="s2n2" depart="52" />
    <vehicle id="right_82" type="Car" route="s2n" depart="53" />
    <vehicle id="left_83" type="Car" route="s2n2" depart="53" />
    <vehicle id="left_84" type="Car" route="s2n2" depart="54" />
    <vehicle id="right_85" type="Car" route="n2s" depart="56" />
    <vehicle id="right_86" type="Car" route="n2s" depart="57" />
    <vehicle id="right_87" type="Car" route="s2n" depart="57" />
    <vehicle id="left_88" type="Car" route="n2s2" depart="57" />
    <vehicle id="left_89" type="Car" route="s2n2" depart="57" />
    <vehicle id="left_90" type="Car" route="s2n2" depart="58" />
    <vehicle id="right_91" type="Car" route="s2n" depart="60" />
    <vehicle id="right_92" type="Car" route="n2s" depart="61" />
    <vehicle id="right_93" type="Car" route="s2n" depart="64" />
    <vehicle id="left_94" type="Car" route="n2s2" depart="64" />
    <vehicle id="right_95" type="Car" route="s2n" depart="66" />
    <vehicle id="right_96" type="Car" route="n2s" depart="67" />
    <vehicle id="left_97" type="Car" route="s2n2" depart="68" />
    <vehicle id="right_98" type="Car" route="s2n" depart="69" />
    <vehicle id="left_99" type="Car" route="n2s2" depart="69" />
    <vehicle id="left_100" type="Car" route="n2s2" depart="70" />
    <vehicle id="left_101" type="Car" route="n2s2" depart="71" />
    <vehicle id="left_102" type="Car" route="s2n2" depart="71" />
    <vehicle id="right_103" type="Car" route="s2n" depart="72" />
    <vehicle id="left_104" type="Car" route="s2n2" depart="72" />
    <vehicle id="right_105" type="Car" route="s2n" depart="74" />
    <vehicle id="right_106" type="Car" route="s2n" depart="76" />
    <vehicle id="left_107" type="Car" route="n2s2" depart="76" />
    <vehicle id="right_108" type="Car" route="n2s" depart="77" />
    <vehicle id="left_109" type="Car" route="s2n2" depart="77" />
    <vehicle id="right_110" type="Car" route="n2s" depart="78" />
    <vehicle id="left_111" type="Car" route="n2s2" depart="78" />
    <vehicle id="left_112" type="Car" route="s2n2" depart="78" />
    <vehicle id="right_113" type="Car" route="n2s" depart="79" />
    <vehicle id="right_114" type="Car" route="s2n" depart="79" />
    <vehicle id="left_115" type="Car" route="n2s2" depart="79" />
    <vehicle id="right_116" type="Car" route="n2s" depart="80" />
    <vehicle id="right_117" type="Car" route="s2n" depart="80" />
    <vehicle id="left_118" type="Car" route="n2s2" depart="82" />
    <vehicle id="right_119" type="Car" route="n2s" depart="83" />
    <vehicle id="right_120" type="Car" route="n2s" depart="84" />
    <vehicle id="right_121" type="Car" route="s2n" depart="84" />
    <vehicle id="right_122" type="Car" route="s2n" depart="85" />
    <vehicle id="right_123" type="Car" route="s2n" depart="86" />
    <vehicle id="left_124" type="Car" route="s2n2" depart="86" />
    <vehicle id="right_125" type="Car" route="n2s" depart="87" />
    <vehicle id="right_126" type="Car" route="s2n" depart="87" />
    <vehicle id="left_127" type="Car" route="s2n2" depart="87" />
    <vehicle id="right_128" type="Car" route="s2n" depart="88" />
    <vehicle id="left_129" type="Car" route="s2n2" depart="88" />
    <vehicle id="right_130" type="Car" route="s2n" depart="90" />
    <vehicle id="left_131" type="Car" route="n2s2" depart="90" />
    <vehicle id="left_132" type="Car" route="s2n2" depart="90" />
    <vehicle id="left_133" type="Car" route="s2n2" depart="92" />
    <vehicle id="right_134" type="Car" route="n2s" depart="94" />
    <vehicle id="left_135" type="Car" route="n2s2" depart="94" />
    <vehicle id="left_136" type="Car" route="s2n2" depart="94" />
    <vehicle id="right_137" type="Car" route="n2s" depart="95" />
    <vehicle id="left_138" type="Car" route="n2s2" depart="95" />
    <vehicle id="right_139" type="Car" route="n2s" depart="96" />
    <vehicle id="left_140" type="Car" route="n2s2" depart="96" />
    <vehicle id="left_141" type="Car" route="s2n2" depart="96" />
    <vehicle id="right_142" type="Car" route="n2s" depart="97" />
    <vehicle id="right_143" type="Car" route="s2n" depart="97" />
    <vehicle id="left_144" type="Car" route="n2s2" depart="97" />
    <vehicle id="left_145" type="Car" route="s2n2" depart="98" />
    <vehicle id="right_146" type="Car" route="n2s" depart="100" />
    <vehicle id="right_147" type="Car" route="s2n" depart="100" />
    <vehicle id="left_148" type="Car" route="s2n2" depart="100" />
    <vehicle id="left_149" type="Car" route="n2s2" depart="101" />
    <vehicle id="right_150" type="Car" route="n2s" depart="102" />
    <vehicle id="left_151" type="Car" route="s2n2" depart="103" />
    <vehicle id="left_152" type="Car" route="n2s2" depart="104" />
    <vehicle id="left_153" type="Car" route="s2n2" depart="104" />
    <vehicle id="left_154" type="Car" route="s2n2" depart="105" />
    <vehicle id="right_155" type="Car" route="n2s" depart="106" />
    <vehicle id="right_156" type="Car" route="s2n" depart="106" />
    <vehicle id="left_157" type="Car" route="n2s2" depart="106" />
    <vehicle id="right_158" type="Car" route="s2n" depart="107" />
    <vehicle id="right_159" type="Car" route="n2s" depart="108" />
    <vehicle id="left_160" type="Car" route="n2s2" depart="108" />
    <vehicle id="right_161" type="Car" route="s2n" depart="109" />
    <vehicle id="right_162" type="Car" route="n2s" depart="110" />
    <vehicle id="left_163" type="Car" route="n2s2" depart="110" />
    <vehicle id="right_164" type="Car" route="s2n" depart="111" />
    <vehicle id="left_165" type="Car" route="n2s2" depart="111" />
    <vehicle id="right_166" type="Car" route="n2s" depart="112" />
    <vehicle id="right_167" type="Car" route="s2n" depart="112" />
    <vehicle id="left_168" type="Car" route="n2s2" depart="112" />
    <vehicle id="left_169" type="Car" route="s2n2" depart="112" />
    <vehicle id="right_170" type="Car" route="n2s" depart="113" />
    <vehicle id="left_171" type="Car" route="n2s2" depart="113" />
    <vehicle id="left_172" type="Car" route="n2s2" depart="114" />
    <vehicle id="left_173" type="Car" route="n2s2" depart="115" />
    <vehicle id="left_174" type="Car" route="s2n2" depart="115" />
    <vehicle id="right_175" type="Car" route="s2n" depart="117" />
    <vehicle id="right_176" type="Car" route="s2n" depart="119" />
    <vehicle id="left_177" type="Car" route="s2n2" depart="119" />
    <vehicle id="right_178" type="Car" route="n2s" depart="120" />
    <vehicle id="left_179" type="Car" route="s2n2" depart="120" />
    <vehicle id="right_180" type="Car" route="s2n" depart="121" />
    <vehicle id="left_181" type="Car" route="n2s2" depart="121" />
    <vehicle id="right_182" type="Car" route="s2n" depart="123" />
    <vehicle id="left_183" type="Car" route="n2s2" depart="123" />
    <vehicle id="left_184" type="Car" route="s2n2" depart="123" />
    <vehicle id="left_185" type="Car" route="n2s2" depart="124" />
    <vehicle id="right_186" type="Car" route="s2n" depart="125" />
    <vehicle id="left_187" type="Car" route="n2s2" depart="126" />
    <vehicle id="left_188" type="Car" route="s2n2" depart="126" />
    <vehicle id="right_189" type="Car" route="n2s" depart="127" />
    <vehicle id="right_190" type="Car" route="s2n" depart="128" />
    <vehicle id="right_191" type="Car" route="n2s" depart="129" />
    <vehicle id="left_192" type="Car" route="n2s2" depart="129" />
    <vehicle id="right_193" type="Car" route="n2s" depart="130" />
    <vehicle id="left_194" type="Car" route="s2n2" depart="130" />
    <vehicle id="right_195" type="Car" route="s2n" depart="131" />
    <vehicle id="left_196" type="Car" route="s2n2" depart="131" />
    <vehicle id="left_197" type="Car" route="s2n2" depart="133" />
    <vehicle id="right_198" type="Car" route="n2s" depart="135" />
    <vehicle id="right_199" type="Car" route="s2n" depart="136" />
    <vehicle id="right_200" type="Car" route="n2s" depart="137" />
    <vehicle id="right_201" type="Car" route="n2s" depart="138" />
    <vehicle id="right_202" type="Car" route="n2s" depart="141" />
    <vehicle id="right_203" type="Car" route="n2s" depart="142" />
    <vehicle id="left_204" type="Car" route="n2s2" depart="143" />
    <vehicle id="left_205" type="Car" route="s2n2" depart="143" />
    <vehicle id="left_206" type="Car" route="s2n2" depart="144" />
    <vehicle id="right_207" type="Car" route="n2s" depart="146" />
    <vehicle id="left_208" type="Car" route="n2s2" depart="146" />
    <vehicle id="right_209" type="Car" route="n2s" depart="148" />
    <vehicle id="right_210" type="Car" route="s2n" depart="148" />
    <vehicle id="left_211" type="Car" route="s2n2" depart="148" />
    <vehicle id="left_212" type="Car" route="n2s2" depart="149" />
    <vehicle id="right_213" type="Car" route="s2n" depart="150" />
    <vehicle id="left_214" type="Car" route="s2n2" depart="150" />
    <vehicle id="left_215" type="Car" route="n2s2" depart="152" />
    <vehicle id="left_216" type="Car" route="s2n2" depart="152" />
    <vehicle id="right_217" type="Car" route="s2n" depart="153" />
    <vehicle id="left_218" type="Car" route="n2s2" depart="153" />
    <vehicle id="right_219" type="Car" route="n2s" depart="154" />
    <vehicle id="left_220" type="Car" route="n2s2" depart="154" />
    <vehicle id="left_221" type="Car" route="s2n2" depart="154" />
    <vehicle id="left_222" type="Car" route="s2n2" depart="155" />
    <vehicle id="right_223" type="Car" route="s2n" depart="156" />
    <vehicle id="left_224" type="Car" route="n2s2" depart="156" />
    <vehicle id="left_225" type="Car" route="n2s2" depart="158" />
    <vehicle id="right_226" type="Car" route="n2s" depart="159" />
    <vehicle id="left_227" type="Car" route="s2n2" depart="159" />
    <vehicle id="right_228" type="Car" route="n2s" depart="161" />
    <vehicle id="left_229" type="Car" route="s2n2" depart="161" />
    <vehicle id="right_230" type="Car" route="s2n" depart="162" />
    <vehicle id="right_231" type="Car" route="n2s" depart="163" />
    <vehicle id="right_232" type="Car" route="n2s" depart="164" />
    <vehicle id="right_233" type="Car" route="s2n" depart="165" />
    <vehicle id="right_234" type="Car" route="n2s" depart="166" />
    <vehicle id="right_235" type="Car" route="s2n" depart="166" />
    <vehicle id="left_236" type="Car" route="s2n2" depart="166" />
    <vehicle id="right_237" type="Car" route="s2n" depart="167" />
    <vehicle id="right_238" type="Car" route="n2s" depart="168" />
    <vehicle id="right_239" type="Car" route="s2n" depart="168" />
    <vehicle id="left_240" type="Car" route="n2s2" depart="168" />
    <vehicle id="left_241" type="Car" route="s2n2" depart="168" />
    <vehicle id="right_242" type="Car" route="n2s" depart="169" />
    <vehicle id="left_243" type="Car" route="n2s2" depart="171" />
    <vehicle id="right_244" type="Car" route="s2n" depart="172" />
    <vehicle id="right_245" type="Car" route="s2n" depart="173" />
    <vehicle id="left_246" type="Car" route="n2s2" depart="173" />
    <vehicle id="left_247" type="Car" route="n2s2" depart="174" />
    <vehicle id="right_248" type="Car" route="n2s" depart="175" />
    <vehicle id="left_249" type="Car" route="s2n2" depart="175" />
    <vehicle id="right_250" type="Car" route="n2s" depart="176" />
    <vehicle id="left_251" type="Car" route="s2n2" depart="176" />
    <vehicle id="right_252" type="Car" route="n2s" depart="177" />
    <vehicle id="left_253" type="Car" route="n2s2" depart="177" />
    <vehicle id="left_254" type="Car" route="s2n2" depart="177" />
    <vehicle id="right_255" type="Car" route="n2s" depart="178" />
    <vehicle id="right_256" type="Car" route="s2n" depart="178" />
    <vehicle id="right_257" type="Car" route="n2s" depart="179" />
    <vehicle id="left_258" type="Car" route="s2n2" depart="179" />
    <vehicle id="right_259" type="Car" route="n2s" depart="180" />
    <vehicle id="right_260" type="Car" route="s2n" depart="180" />
    <vehicle id="left_261" type="Car" route="s2n2" depart="180" />
    <vehicle id="right_262" type="Car" route="s2n" depart="181" />
    <vehicle id="left_263" type="Car" route="n2s2" depart="181" />
    <vehicle id="left_264" type="Car" route="s2n2" depart="181" />
    <vehicle id="right_265" type="Car" route="s2n" depart="182" />
    <vehicle id="left_266" type="Car" route="n2s2" depart="182" />
    <vehicle id="right_267" type="Car" route="s2n" depart="184" />
    <vehicle id="right_268" type="Car" route="s2n" depart="185" />
    <vehicle id="right_269" type="Car" route="n2s" depart="186" />
    <vehicle id="left_270" type="Car" route="n2s2" depart="186" />
    <vehicle id="right_271" type="Car" route="n2s" depart="187" />
    <vehicle id="left_272" type="Car" route="s2n2" depart="187" />
    <vehicle id="left_273" type="Car" route="s2n2" depart="188" />
    <vehicle id="right_274" type="Car" route="n2s" depart="190" />
    <vehicle id="left_275" type="Car" route="n2s2" depart="190" />
    <vehicle id="left_276" type="Car" route="n2s2" depart="193" />
    <vehicle id="right_277" type="Car" route="s2n" depart="194" />
    <vehicle id="left_278" type="Car" route="s2n2" depart="194" />
    <vehicle id="left_279" type="Car" route="n2s2" depart="195" />
    <vehicle id="left_280" type="Car" route="s2n2" depart="196" />
    <vehicle id="right_281" type="Car" route="n2s" depart="197" />
    <vehicle id="right_282" type="Car" route="s2n" depart="198" />
    <vehicle id="left_283" type="Car" route="n2s2" depart="199" />
</routes>
