<routes>
            <vType accel="1.0" decel="5.0" id="Car" length="4.0" maxSpeed="50.0" sigma="0.0" departSpeed="13.89"/>

            <route id="n2s" edges="gneE19 -gneE18" />
            <route id="s2n" edges="gneE18 -gneE19" />
            <route id="w2e" edges="gneE16 -gneE32 -gneE31" />
            <route id="n2s2" edges="-gneE30 -gneE29" />
            <route id="s2n2" edges="gneE29 gneE30" />

            
    <vehicle id="right_0" type="Car" route="s2n" depart="0" />
    <vehicle id="right_1" type="Car" route="s2n" depart="2" />
    <vehicle id="left_2" type="Car" route="s2n2" depart="2" />
    <vehicle id="left_3" type="Car" route="s2n2" depart="3" />
    <vehicle id="right_4" type="Car" route="n2s" depart="4" />
    <vehicle id="left_5" type="Car" route="n2s2" depart="4" />
    <vehicle id="right_6" type="Car" route="s2n" depart="5" />
    <vehicle id="left_7" type="Car" route="s2n2" depart="5" />
    <vehicle id="ego" type="Car" route="w2e" depart="5" />
    <vehicle id="right_9" type="Car" route="n2s" depart="6" />
    <vehicle id="left_10" type="Car" route="n2s2" depart="6" />
    <vehicle id="right_11" type="Car" route="n2s" depart="7" />
    <vehicle id="left_12" type="Car" route="s2n2" depart="8" />
    <vehicle id="right_13" type="Car" route="s2n" depart="9" />
    <vehicle id="right_14" type="Car" route="n2s" depart="10" />
    <vehicle id="left_15" type="Car" route="s2n2" depart="10" />
    <vehicle id="right_16" type="Car" route="n2s" depart="11" />
    <vehicle id="left_17" type="Car" route="s2n2" depart="12" />
    <vehicle id="left_18" type="Car" route="s2n2" depart="13" />
    <vehicle id="right_19" type="Car" route="n2s" depart="14" />
    <vehicle id="right_20" type="Car" route="s2n" depart="15" />
    <vehicle id="left_21" type="Car" route="n2s2" depart="15" />
    <vehicle id="left_22" type="Car" route="s2n2" depart="15" />
    <vehicle id="left_23" type="Car" route="n2s2" depart="16" />
    <vehicle id="left_24" type="Car" route="s2n2" depart="17" />
    <vehicle id="right_25" type="Car" route="s2n" depart="18" />
    <vehicle id="left_26" type="Car" route="s2n2" depart="19" />
    <vehicle id="right_27" type="Car" route="n2s" depart="20" />
    <vehicle id="left_28" type="Car" route="n2s2" depart="20" />
    <vehicle id="left_29" type="Car" route="s2n2" depart="20" />
    <vehicle id="right_30" type="Car" route="n2s" depart="21" />
    <vehicle id="left_31" type="Car" route="s2n2" depart="21" />
    <vehicle id="left_32" type="Car" route="s2n2" depart="22" />
    <vehicle id="left_33" type="Car" route="n2s2" depart="24" />
    <vehicle id="right_34" type="Car" route="n2s" depart="26" />
    <vehicle id="left_35" type="Car" route="s2n2" depart="26" />
    <vehicle id="left_36" type="Car" route="s2n2" depart="27" />
    <vehicle id="right_37" type="Car" route="n2s" depart="28" />
    <vehicle id="left_38" type="Car" route="s2n2" depart="28" />
    <vehicle id="right_39" type="Car" route="n2s" depart="29" />
    <vehicle id="right_40" type="Car" route="s2n" depart="29" />
    <vehicle id="left_41" type="Car" route="n2s2" depart="32" />
    <vehicle id="left_42" type="Car" route="s2n2" depart="34" />
    <vehicle id="right_43" type="Car" route="n2s" depart="35" />
    <vehicle id="left_44" type="Car" route="n2s2" depart="36" />
    <vehicle id="right_45" type="Car" route="s2n" depart="38" />
    <vehicle id="left_46" type="Car" route="n2s2" depart="39" />
    <vehicle id="left_47" type="Car" route="s2n2" depart="39" />
    <vehicle id="right_48" type="Car" route="n2s" depart="40" />
    <vehicle id="left_49" type="Car" route="n2s2" depart="40" />
    <vehicle id="right_50" type="Car" route="n2s" depart="41" />
    <vehicle id="left_51" type="Car" route="s2n2" depart="41" />
    <vehicle id="left_52" type="Car" route="n2s2" depart="43" />
    <vehicle id="right_53" type="Car" route="n2s" depart="45" />
    <vehicle id="left_54" type="Car" route="n2s2" depart="45" />
    <vehicle id="left_55" type="Car" route="s2n2" depart="45" />
    <vehicle id="left_56" type="Car" route="n2s2" depart="46" />
    <vehicle id="left_57" type="Car" route="n2s2" depart="47" />
    <vehicle id="left_58" type="Car" route="s2n2" depart="47" />
    <vehicle id="right_59" type="Car" route="s2n" depart="48" />
    <vehicle id="left_60" type="Car" route="n2s2" depart="48" />
    <vehicle id="right_61" type="Car" route="n2s" depart="49" />
    <vehicle id="left_62" type="Car" route="n2s2" depart="49" />
    <vehicle id="right_63" type="Car" route="n2s" depart="50" />
    <vehicle id="right_64" type="Car" route="s2n" depart="50" />
    <vehicle id="left_65" type="Car" route="n2s2" depart="50" />
    <vehicle id="right_66" type="Car" route="n2s" depart="51" />
    <vehicle id="right_67" type="Car" route="s2n" depart="51" />
    <vehicle id="left_68" type="Car" route="n2s2" depart="51" />
    <vehicle id="right_69" type="Car" route="s2n" depart="52" />
    <vehicle id="left_70" type="Car" route="s2n2" depart="52" />
    <vehicle id="right_71" type="Car" route="s2n" depart="53" />
    <vehicle id="left_72" type="Car" route="n2s2" depart="53" />
    <vehicle id="left_73" type="Car" route="n2s2" depart="54" />
    <vehicle id="right_74" type="Car" route="s2n" depart="56" />
    <vehicle id="left_75" type="Car" route="n2s2" depart="56" />
    <vehicle id="left_76" type="Car" route="s2n2" depart="57" />
    <vehicle id="left_77" type="Car" route="s2n2" depart="59" />
    <vehicle id="right_78" type="Car" route="s2n" depart="60" />
    <vehicle id="left_79" type="Car" route="n2s2" depart="60" />
    <vehicle id="right_80" type="Car" route="n2s" depart="61" />
    <vehicle id="right_81" type="Car" route="n2s" depart="62" />
    <vehicle id="right_82" type="Car" route="s2n" depart="62" />
    <vehicle id="left_83" type="Car" route="n2s2" depart="62" />
    <vehicle id="left_84" type="Car" route="s2n2" depart="62" />
    <vehicle id="right_85" type="Car" route="n2s" depart="63" />
    <vehicle id="right_86" type="Car" route="s2n" depart="63" />
    <vehicle id="left_87" type="Car" route="n2s2" depart="64" />
    <vehicle id="right_88" type="Car" route="s2n" depart="65" />
    <vehicle id="left_89" type="Car" route="n2s2" depart="65" />
    <vehicle id="left_90" type="Car" route="s2n2" depart="65" />
    <vehicle id="left_91" type="Car" route="s2n2" depart="68" />
    <vehicle id="right_92" type="Car" route="s2n" depart="69" />
    <vehicle id="left_93" type="Car" route="n2s2" depart="69" />
    <vehicle id="left_94" type="Car" route="n2s2" depart="70" />
    <vehicle id="left_95" type="Car" route="n2s2" depart="72" />
    <vehicle id="left_96" type="Car" route="s2n2" depart="72" />
    <vehicle id="right_97" type="Car" route="s2n" depart="74" />
    <vehicle id="left_98" type="Car" route="s2n2" depart="74" />
    <vehicle id="right_99" type="Car" route="n2s" depart="75" />
    <vehicle id="left_100" type="Car" route="s2n2" depart="76" />
    <vehicle id="right_101" type="Car" route="n2s" depart="77" />
    <vehicle id="left_102" type="Car" route="n2s2" depart="77" />
    <vehicle id="left_103" type="Car" route="s2n2" depart="81" />
    <vehicle id="right_104" type="Car" route="s2n" depart="82" />
    <vehicle id="left_105" type="Car" route="s2n2" depart="82" />
    <vehicle id="right_106" type="Car" route="n2s" depart="83" />
    <vehicle id="right_107" type="Car" route="n2s" depart="85" />
    <vehicle id="right_108" type="Car" route="n2s" depart="86" />
    <vehicle id="right_109" type="Car" route="s2n" depart="86" />
    <vehicle id="left_110" type="Car" route="s2n2" depart="86" />
    <vehicle id="right_111" type="Car" route="s2n" depart="87" />
    <vehicle id="right_112" type="Car" route="s2n" depart="88" />
    <vehicle id="left_113" type="Car" route="n2s2" depart="88" />
    <vehicle id="right_114" type="Car" route="n2s" depart="89" />
    <vehicle id="right_115" type="Car" route="s2n" depart="89" />
    <vehicle id="right_116" type="Car" route="n2s" depart="90" />
    <vehicle id="left_117" type="Car" route="n2s2" depart="90" />
    <vehicle id="left_118" type="Car" route="s2n2" depart="90" />
    <vehicle id="left_119" type="Car" route="n2s2" depart="91" />
    <vehicle id="left_120" type="Car" route="s2n2" depart="91" />
    <vehicle id="right_121" type="Car" route="s2n" depart="92" />
    <vehicle id="right_122" type="Car" route="s2n" depart="93" />
    <vehicle id="left_123" type="Car" route="n2s2" depart="93" />
    <vehicle id="left_124" type="Car" route="n2s2" depart="94" />
    <vehicle id="right_125" type="Car" route="n2s" depart="96" />
    <vehicle id="right_126" type="Car" route="s2n" depart="97" />
    <vehicle id="left_127" type="Car" route="n2s2" depart="98" />
    <vehicle id="right_128" type="Car" route="s2n" depart="100" />
    <vehicle id="left_129" type="Car" route="n2s2" depart="100" />
    <vehicle id="left_130" type="Car" route="n2s2" depart="105" />
    <vehicle id="left_131" type="Car" route="s2n2" depart="106" />
    <vehicle id="left_132" type="Car" route="n2s2" depart="107" />
    <vehicle id="right_133" type="Car" route="n2s" depart="108" />
    <vehicle id="left_134" type="Car" route="s2n2" depart="109" />
    <vehicle id="right_135" type="Car" route="n2s" depart="110" />
    <vehicle id="right_136" type="Car" route="n2s" depart="112" />
    <vehicle id="right_137" type="Car" route="s2n" depart="112" />
    <vehicle id="right_138" type="Car" route="n2s" depart="113" />
    <vehicle id="left_139" type="Car" route="n2s2" depart="113" />
    <vehicle id="left_140" type="Car" route="s2n2" depart="114" />
    <vehicle id="left_141" type="Car" route="s2n2" depart="115" />
    <vehicle id="left_142" type="Car" route="n2s2" depart="116" />
    <vehicle id="right_143" type="Car" route="n2s" depart="117" />
    <vehicle id="left_144" type="Car" route="s2n2" depart="117" />
    <vehicle id="left_145" type="Car" route="n2s2" depart="119" />
    <vehicle id="left_146" type="Car" route="s2n2" depart="119" />
    <vehicle id="left_147" type="Car" route="s2n2" depart="120" />
    <vehicle id="left_148" type="Car" route="s2n2" depart="121" />
    <vehicle id="left_149" type="Car" route="n2s2" depart="122" />
    <vehicle id="left_150" type="Car" route="s2n2" depart="122" />
    <vehicle id="right_151" type="Car" route="n2s" depart="124" />
    <vehicle id="left_152" type="Car" route="n2s2" depart="124" />
    <vehicle id="right_153" type="Car" route="s2n" depart="125" />
    <vehicle id="left_154" type="Car" route="n2s2" depart="125" />
    <vehicle id="right_155" type="Car" route="n2s" depart="126" />
    <vehicle id="right_156" type="Car" route="s2n" depart="126" />
    <vehicle id="left_157" type="Car" route="n2s2" depart="126" />
    <vehicle id="right_158" type="Car" route="n2s" depart="127" />
    <vehicle id="left_159" type="Car" route="n2s2" depart="127" />
    <vehicle id="right_160" type="Car" route="s2n" depart="129" />
    <vehicle id="left_161" type="Car" route="n2s2" depart="130" />
    <vehicle id="right_162" type="Car" route="n2s" depart="131" />
    <vehicle id="left_163" type="Car" route="n2s2" depart="131" />
    <vehicle id="right_164" type="Car" route="s2n" depart="132" />
    <vehicle id="left_165" type="Car" route="n2s2" depart="132" />
    <vehicle id="left_166" type="Car" route="n2s2" depart="133" />
    <vehicle id="left_167" type="Car" route="n2s2" depart="134" />
    <vehicle id="right_168" type="Car" route="s2n" depart="135" />
    <vehicle id="left_169" type="Car" route="s2n2" depart="136" />
    <vehicle id="right_170" type="Car" route="n2s" depart="137" />
    <vehicle id="left_171" type="Car" route="n2s2" depart="137" />
    <vehicle id="left_172" type="Car" route="s2n2" depart="137" />
    <vehicle id="right_173" type="Car" route="n2s" depart="138" />
    <vehicle id="right_174" type="Car" route="s2n" depart="138" />
    <vehicle id="right_175" type="Car" route="s2n" depart="139" />
    <vehicle id="left_176" type="Car" route="n2s2" depart="139" />
    <vehicle id="right_177" type="Car" route="n2s" depart="142" />
    <vehicle id="right_178" type="Car" route="s2n" depart="142" />
    <vehicle id="left_179" type="Car" route="n2s2" depart="142" />
    <vehicle id="left_180" type="Car" route="s2n2" depart="142" />
    <vehicle id="right_181" type="Car" route="n2s" depart="143" />
    <vehicle id="right_182" type="Car" route="n2s" depart="144" />
    <vehicle id="right_183" type="Car" route="s2n" depart="145" />
    <vehicle id="right_184" type="Car" route="n2s" depart="146" />
    <vehicle id="right_185" type="Car" route="s2n" depart="146" />
    <vehicle id="right_186" type="Car" route="n2s" depart="148" />
    <vehicle id="right_187" type="Car" route="s2n" depart="149" />
    <vehicle id="right_188" type="Car" route="n2s" depart="151" />
    <vehicle id="right_189" type="Car" route="s2n" depart="151" />
    <vehicle id="right_190" type="Car" route="n2s" depart="152" />
    <vehicle id="left_191" type="Car" route="n2s2" depart="152" />
    <vehicle id="right_192" type="Car" route="s2n" depart="154" />
    <vehicle id="right_193" type="Car" route="s2n" depart="156" />
    <vehicle id="left_194" type="Car" route="n2s2" depart="156" />
    <vehicle id="right_195" type="Car" route="s2n" depart="157" />
    <vehicle id="right_196" type="Car" route="s2n" depart="158" />
    <vehicle id="left_197" type="Car" route="n2s2" depart="158" />
    <vehicle id="left_198" type="Car" route="s2n2" depart="158" />
    <vehicle id="right_199" type="Car" route="n2s" depart="159" />
    <vehicle id="left_200" type="Car" route="n2s2" depart="159" />
    <vehicle id="left_201" type="Car" route="n2s2" depart="161" />
    <vehicle id="left_202" type="Car" route="n2s2" depart="162" />
    <vehicle id="right_203" type="Car" route="n2s" depart="163" />
    <vehicle id="left_204" type="Car" route="s2n2" depart="163" />
    <vehicle id="right_205" type="Car" route="s2n" depart="164" />
    <vehicle id="left_206" type="Car" route="n2s2" depart="164" />
    <vehicle id="left_207" type="Car" route="s2n2" depart="166" />
    <vehicle id="right_208" type="Car" route="s2n" depart="167" />
    <vehicle id="right_209" type="Car" route="s2n" depart="168" />
    <vehicle id="right_210" type="Car" route="n2s" depart="170" />
    <vehicle id="left_211" type="Car" route="s2n2" depart="170" />
    <vehicle id="left_212" type="Car" route="n2s2" depart="172" />
    <vehicle id="left_213" type="Car" route="n2s2" depart="175" />
    <vehicle id="right_214" type="Car" route="n2s" depart="177" />
    <vehicle id="left_215" type="Car" route="s2n2" depart="177" />
    <vehicle id="right_216" type="Car" route="n2s" depart="178" />
    <vehicle id="left_217" type="Car" route="n2s2" depart="178" />
    <vehicle id="right_218" type="Car" route="n2s" depart="179" />
    <vehicle id="right_219" type="Car" route="s2n" depart="180" />
    <vehicle id="left_220" type="Car" route="n2s2" depart="180" />
    <vehicle id="right_221" type="Car" route="s2n" depart="181" />
    <vehicle id="left_222" type="Car" route="s2n2" depart="181" />
    <vehicle id="left_223" type="Car" route="s2n2" depart="182" />
    <vehicle id="right_224" type="Car" route="s2n" depart="183" />
    <vehicle id="left_225" type="Car" route="s2n2" depart="183" />
    <vehicle id="left_226" type="Car" route="s2n2" depart="184" />
    <vehicle id="right_227" type="Car" route="n2s" depart="185" />
    <vehicle id="left_228" type="Car" route="s2n2" depart="185" />
    <vehicle id="left_229" type="Car" route="n2s2" depart="186" />
    <vehicle id="left_230" type="Car" route="s2n2" depart="186" />
    <vehicle id="left_231" type="Car" route="s2n2" depart="187" />
    <vehicle id="right_232" type="Car" route="n2s" depart="188" />
    <vehicle id="right_233" type="Car" route="n2s" depart="189" />
    <vehicle id="right_234" type="Car" route="n2s" depart="190" />
    <vehicle id="left_235" type="Car" route="n2s2" depart="190" />
    <vehicle id="left_236" type="Car" route="s2n2" depart="190" />
    <vehicle id="right_237" type="Car" route="s2n" depart="191" />
    <vehicle id="right_238" type="Car" route="n2s" depart="192" />
    <vehicle id="right_239" type="Car" route="n2s" depart="194" />
    <vehicle id="right_240" type="Car" route="s2n" depart="194" />
    <vehicle id="left_241" type="Car" route="s2n2" depart="194" />
    <vehicle id="right_242" type="Car" route="n2s" depart="195" />
    <vehicle id="left_243" type="Car" route="n2s2" depart="195" />
    <vehicle id="left_244" type="Car" route="s2n2" depart="196" />
    <vehicle id="left_245" type="Car" route="s2n2" depart="197" />
    <vehicle id="left_246" type="Car" route="n2s2" depart="198" />
    <vehicle id="left_247" type="Car" route="s2n2" depart="199" />
</routes>
