<routes>
            <vType accel="1.0" decel="5.0" id="Car" length="4.0" maxSpeed="100.0" sigma="0.0" departSpeed="13.89"/>
    
            <route id="n2s" edges="gneE2 -gneE3" />
            <route id="s2n" edges="gneE3 -gneE2" />
            <route id="w2e" edges="gneE0 -gneE1" />
    
            
    <vehicle id="right_0" type="Car" route="n2s" depart="0" />
    <vehicle id="right_1" type="Car" route="n2s" depart="2" />
    <vehicle id="left_2" type="Car" route="s2n" depart="4" />
    <vehicle id="left_3" type="Car" route="s2n" depart="6" />
    <vehicle id="ego" type="Car" route="w2e" depart="10" />
    <vehicle id="left_5" type="Car" route="s2n" depart="15" />
    <vehicle id="right_6" type="Car" route="n2s" depart="17" />
    <vehicle id="left_7" type="Car" route="s2n" depart="17" />
    <vehicle id="left_8" type="Car" route="s2n" depart="18" />
    <vehicle id="right_9" type="Car" route="n2s" depart="19" />
    <vehicle id="right_10" type="Car" route="n2s" depart="21" />
    <vehicle id="right_11" type="Car" route="n2s" depart="23" />
    <vehicle id="left_12" type="Car" route="s2n" depart="25" />
    <vehicle id="right_13" type="Car" route="n2s" depart="26" />
    <vehicle id="left_14" type="Car" route="s2n" depart="26" />
    <vehicle id="right_15" type="Car" route="n2s" depart="34" />
    <vehicle id="right_16" type="Car" route="n2s" depart="37" />
    <vehicle id="left_17" type="Car" route="s2n" depart="37" />
    <vehicle id="right_18" type="Car" route="n2s" depart="38" />
    <vehicle id="left_19" type="Car" route="s2n" depart="46" />
    <vehicle id="right_20" type="Car" route="n2s" depart="49" />
    <vehicle id="left_21" type="Car" route="s2n" depart="49" />
    <vehicle id="left_22" type="Car" route="s2n" depart="53" />
    <vehicle id="right_23" type="Car" route="n2s" depart="54" />
    <vehicle id="right_24" type="Car" route="n2s" depart="56" />
    <vehicle id="right_25" type="Car" route="n2s" depart="59" />
    <vehicle id="right_26" type="Car" route="n2s" depart="65" />
    <vehicle id="left_27" type="Car" route="s2n" depart="80" />
    <vehicle id="right_28" type="Car" route="n2s" depart="83" />
    <vehicle id="left_29" type="Car" route="s2n" depart="83" />
    <vehicle id="left_30" type="Car" route="s2n" depart="84" />
    <vehicle id="right_31" type="Car" route="n2s" depart="87" />
    <vehicle id="left_32" type="Car" route="s2n" depart="97" />
    <vehicle id="right_33" type="Car" route="n2s" depart="98" />
    <vehicle id="left_34" type="Car" route="s2n" depart="98" />
    <vehicle id="right_35" type="Car" route="n2s" depart="108" />
    <vehicle id="left_36" type="Car" route="s2n" depart="112" />
    <vehicle id="left_37" type="Car" route="s2n" depart="118" />
    <vehicle id="right_38" type="Car" route="n2s" depart="121" />
    <vehicle id="left_39" type="Car" route="s2n" depart="121" />
    <vehicle id="right_40" type="Car" route="n2s" depart="127" />
    <vehicle id="left_41" type="Car" route="s2n" depart="133" />
    <vehicle id="left_42" type="Car" route="s2n" depart="136" />
    <vehicle id="right_43" type="Car" route="n2s" depart="143" />
    <vehicle id="left_44" type="Car" route="s2n" depart="143" />
    <vehicle id="right_45" type="Car" route="n2s" depart="144" />
    <vehicle id="left_46" type="Car" route="s2n" depart="154" />
    <vehicle id="right_47" type="Car" route="n2s" depart="155" />
    <vehicle id="right_48" type="Car" route="n2s" depart="159" />
    <vehicle id="left_49" type="Car" route="s2n" depart="160" />
    <vehicle id="right_50" type="Car" route="n2s" depart="162" />
    <vehicle id="right_51" type="Car" route="n2s" depart="164" />
    <vehicle id="left_52" type="Car" route="s2n" depart="164" />
    <vehicle id="left_53" type="Car" route="s2n" depart="168" />
    <vehicle id="right_54" type="Car" route="n2s" depart="177" />
    <vehicle id="right_55" type="Car" route="n2s" depart="180" />
    <vehicle id="left_56" type="Car" route="s2n" depart="180" />
    <vehicle id="left_57" type="Car" route="s2n" depart="181" />
    <vehicle id="right_58" type="Car" route="n2s" depart="182" />
    <vehicle id="left_59" type="Car" route="s2n" depart="182" />
    <vehicle id="right_60" type="Car" route="n2s" depart="186" />
    <vehicle id="left_61" type="Car" route="s2n" depart="186" />
    <vehicle id="left_62" type="Car" route="s2n" depart="192" />
    <vehicle id="left_63" type="Car" route="s2n" depart="193" />
    <vehicle id="right_64" type="Car" route="n2s" depart="197" />
    <vehicle id="right_65" type="Car" route="n2s" depart="198" />
    <vehicle id="left_66" type="Car" route="s2n" depart="199" />
</routes>
