<routes>
            <vType accel="1.0" decel="5.0" id="Car" length="4.0" maxSpeed="20.0" sigma="0.0" departSpeed="13.89"/>
    
            <route id="n2s" edges="gneE2 -gneE3" />
            <route id="s2n" edges="gneE3 -gneE2" />
            <route id="w2e" edges="gneE0 -gneE1" />
    
            
    <vehicle id="right_0" type="Car" route="n2s" depart="0" />
    <vehicle id="right_1" type="Car" route="n2s" depart="2" />
    <vehicle id="left_2" type="Car" route="s2n" depart="3" />
    <vehicle id="right_3" type="Car" route="n2s" depart="7" />
    <vehicle id="left_4" type="Car" route="s2n" depart="8" />
    <vehicle id="left_5" type="Car" route="s2n" depart="9" />
    <vehicle id="right_6" type="Car" route="n2s" depart="10" />
    <vehicle id="ego" type="Car" route="w2e" depart="10" />
    <vehicle id="left_8" type="Car" route="s2n" depart="10" />
    <vehicle id="left_9" type="Car" route="s2n" depart="12" />
    <vehicle id="left_10" type="Car" route="s2n" depart="15" />
    <vehicle id="right_11" type="Car" route="n2s" depart="17" />
    <vehicle id="right_12" type="Car" route="n2s" depart="18" />
    <vehicle id="left_13" type="Car" route="s2n" depart="19" />
    <vehicle id="right_14" type="Car" route="n2s" depart="21" />
    <vehicle id="right_15" type="Car" route="n2s" depart="24" />
    <vehicle id="right_16" type="Car" route="n2s" depart="30" />
    <vehicle id="left_17" type="Car" route="s2n" depart="41" />
    <vehicle id="right_18" type="Car" route="n2s" depart="50" />
    <vehicle id="left_19" type="Car" route="s2n" depart="53" />
    <vehicle id="left_20" type="Car" route="s2n" depart="59" />
    <vehicle id="right_21" type="Car" route="n2s" depart="63" />
    <vehicle id="left_22" type="Car" route="s2n" depart="65" />
    <vehicle id="right_23" type="Car" route="n2s" depart="67" />
    <vehicle id="right_24" type="Car" route="n2s" depart="68" />
    <vehicle id="right_25" type="Car" route="n2s" depart="71" />
    <vehicle id="left_26" type="Car" route="s2n" depart="75" />
    <vehicle id="left_27" type="Car" route="s2n" depart="78" />
    <vehicle id="right_28" type="Car" route="n2s" depart="80" />
    <vehicle id="right_29" type="Car" route="n2s" depart="81" />
    <vehicle id="left_30" type="Car" route="s2n" depart="84" />
    <vehicle id="left_31" type="Car" route="s2n" depart="87" />
    <vehicle id="right_32" type="Car" route="n2s" depart="90" />
    <vehicle id="right_33" type="Car" route="n2s" depart="94" />
    <vehicle id="left_34" type="Car" route="s2n" depart="94" />
    <vehicle id="right_35" type="Car" route="n2s" depart="97" />
    <vehicle id="right_36" type="Car" route="n2s" depart="99" />
    <vehicle id="left_37" type="Car" route="s2n" depart="104" />
    <vehicle id="right_38" type="Car" route="n2s" depart="114" />
    <vehicle id="right_39" type="Car" route="n2s" depart="115" />
    <vehicle id="left_40" type="Car" route="s2n" depart="117" />
    <vehicle id="left_41" type="Car" route="s2n" depart="121" />
    <vehicle id="right_42" type="Car" route="n2s" depart="128" />
    <vehicle id="right_43" type="Car" route="n2s" depart="130" />
    <vehicle id="left_44" type="Car" route="s2n" depart="130" />
    <vehicle id="right_45" type="Car" route="n2s" depart="131" />
    <vehicle id="left_46" type="Car" route="s2n" depart="131" />
    <vehicle id="left_47" type="Car" route="s2n" depart="134" />
    <vehicle id="right_48" type="Car" route="n2s" depart="139" />
    <vehicle id="right_49" type="Car" route="n2s" depart="143" />
    <vehicle id="left_50" type="Car" route="s2n" depart="148" />
    <vehicle id="left_51" type="Car" route="s2n" depart="153" />
    <vehicle id="right_52" type="Car" route="n2s" depart="155" />
    <vehicle id="right_53" type="Car" route="n2s" depart="159" />
    <vehicle id="right_54" type="Car" route="n2s" depart="160" />
    <vehicle id="left_55" type="Car" route="s2n" depart="160" />
    <vehicle id="right_56" type="Car" route="n2s" depart="162" />
    <vehicle id="left_57" type="Car" route="s2n" depart="163" />
    <vehicle id="right_58" type="Car" route="n2s" depart="164" />
    <vehicle id="right_59" type="Car" route="n2s" depart="169" />
    <vehicle id="left_60" type="Car" route="s2n" depart="172" />
    <vehicle id="right_61" type="Car" route="n2s" depart="175" />
    <vehicle id="left_62" type="Car" route="s2n" depart="182" />
    <vehicle id="right_63" type="Car" route="n2s" depart="183" />
    <vehicle id="left_64" type="Car" route="s2n" depart="188" />
    <vehicle id="left_65" type="Car" route="s2n" depart="192" />
    <vehicle id="right_66" type="Car" route="n2s" depart="193" />
</routes>
