<routes>
            <vType accel="1.0" decel="5.0" id="Car" length="4.0" maxSpeed="20.0" sigma="0.0" departSpeed="13.89"/>
    
            <route id="n2s" edges="gneE2 -gneE3" />
            <route id="s2n" edges="gneE3 -gneE2" />
            <route id="w2e" edges="gneE0 -gneE1" />
    
            
    <vehicle id="right_0" type="Car" route="n2s" depart="0" />
    <vehicle id="right_1" type="Car" route="n2s" depart="1" />
    <vehicle id="left_2" type="Car" route="s2n" depart="1" />
    <vehicle id="right_3" type="Car" route="n2s" depart="3" />
    <vehicle id="left_4" type="Car" route="s2n" depart="3" />
    <vehicle id="right_5" type="Car" route="n2s" depart="10" />
    <vehicle id="ego" type="Car" route="w2e" depart="10" />
    <vehicle id="left_7" type="Car" route="s2n" depart="11" />
    <vehicle id="right_8" type="Car" route="n2s" depart="17" />
    <vehicle id="right_9" type="Car" route="n2s" depart="19" />
    <vehicle id="right_10" type="Car" route="n2s" depart="21" />
    <vehicle id="left_11" type="Car" route="s2n" depart="22" />
    <vehicle id="right_12" type="Car" route="n2s" depart="26" />
    <vehicle id="right_13" type="Car" route="n2s" depart="31" />
    <vehicle id="left_14" type="Car" route="s2n" depart="32" />
    <vehicle id="right_15" type="Car" route="n2s" depart="33" />
    <vehicle id="right_16" type="Car" route="n2s" depart="38" />
    <vehicle id="left_17" type="Car" route="s2n" depart="38" />
    <vehicle id="left_18" type="Car" route="s2n" depart="46" />
    <vehicle id="left_19" type="Car" route="s2n" depart="50" />
    <vehicle id="left_20" type="Car" route="s2n" depart="52" />
    <vehicle id="right_21" type="Car" route="n2s" depart="58" />
    <vehicle id="right_22" type="Car" route="n2s" depart="65" />
    <vehicle id="right_23" type="Car" route="n2s" depart="66" />
    <vehicle id="left_24" type="Car" route="s2n" depart="74" />
    <vehicle id="right_25" type="Car" route="n2s" depart="82" />
    <vehicle id="left_26" type="Car" route="s2n" depart="82" />
    <vehicle id="left_27" type="Car" route="s2n" depart="87" />
    <vehicle id="right_28" type="Car" route="n2s" depart="88" />
    <vehicle id="left_29" type="Car" route="s2n" depart="89" />
    <vehicle id="right_30" type="Car" route="n2s" depart="102" />
    <vehicle id="left_31" type="Car" route="s2n" depart="108" />
    <vehicle id="right_32" type="Car" route="n2s" depart="109" />
    <vehicle id="left_33" type="Car" route="s2n" depart="111" />
    <vehicle id="left_34" type="Car" route="s2n" depart="113" />
    <vehicle id="right_35" type="Car" route="n2s" depart="116" />
    <vehicle id="left_36" type="Car" route="s2n" depart="116" />
    <vehicle id="right_37" type="Car" route="n2s" depart="117" />
    <vehicle id="left_38" type="Car" route="s2n" depart="118" />
    <vehicle id="left_39" type="Car" route="s2n" depart="121" />
    <vehicle id="left_40" type="Car" route="s2n" depart="128" />
    <vehicle id="right_41" type="Car" route="n2s" depart="129" />
    <vehicle id="right_42" type="Car" route="n2s" depart="131" />
    <vehicle id="left_43" type="Car" route="s2n" depart="131" />
    <vehicle id="left_44" type="Car" route="s2n" depart="137" />
    <vehicle id="left_45" type="Car" route="s2n" depart="140" />
    <vehicle id="left_46" type="Car" route="s2n" depart="154" />
    <vehicle id="right_47" type="Car" route="n2s" depart="159" />
    <vehicle id="left_48" type="Car" route="s2n" depart="172" />
    <vehicle id="left_49" type="Car" route="s2n" depart="173" />
    <vehicle id="right_50" type="Car" route="n2s" depart="175" />
    <vehicle id="right_51" type="Car" route="n2s" depart="181" />
    <vehicle id="right_52" type="Car" route="n2s" depart="183" />
    <vehicle id="right_53" type="Car" route="n2s" depart="186" />
    <vehicle id="right_54" type="Car" route="n2s" depart="187" />
    <vehicle id="right_55" type="Car" route="n2s" depart="189" />
    <vehicle id="right_56" type="Car" route="n2s" depart="191" />
    <vehicle id="left_57" type="Car" route="s2n" depart="192" />
    <vehicle id="right_58" type="Car" route="n2s" depart="195" />
    <vehicle id="right_59" type="Car" route="n2s" depart="199" />
</routes>
