<routes>
            <vType accel="1.0" decel="5.0" id="Car" length="4.0" maxSpeed="20.0" sigma="0.0" departSpeed="13.89"/>
    
            <route id="n2s" edges="gneE2 -gneE3" />
            <route id="s2n" edges="gneE3 -gneE2" />
            <route id="w2e" edges="gneE0 -gneE1" />
    
            
    <vehicle id="right_0" type="Car" route="n2s" depart="4" />
    <vehicle id="right_1" type="Car" route="n2s" depart="7" />
    <vehicle id="ego" type="Car" route="w2e" depart="10" />
    <vehicle id="right_3" type="Car" route="n2s" depart="14" />
    <vehicle id="right_4" type="Car" route="n2s" depart="16" />
    <vehicle id="left_5" type="Car" route="s2n" depart="18" />
    <vehicle id="left_6" type="Car" route="s2n" depart="27" />
    <vehicle id="right_7" type="Car" route="n2s" depart="28" />
    <vehicle id="left_8" type="Car" route="s2n" depart="28" />
    <vehicle id="left_9" type="Car" route="s2n" depart="30" />
    <vehicle id="right_10" type="Car" route="n2s" depart="32" />
    <vehicle id="right_11" type="Car" route="n2s" depart="34" />
    <vehicle id="left_12" type="Car" route="s2n" depart="34" />
    <vehicle id="right_13" type="Car" route="n2s" depart="42" />
    <vehicle id="left_14" type="Car" route="s2n" depart="43" />
    <vehicle id="right_15" type="Car" route="n2s" depart="44" />
    <vehicle id="left_16" type="Car" route="s2n" depart="49" />
    <vehicle id="right_17" type="Car" route="n2s" depart="50" />
    <vehicle id="right_18" type="Car" route="n2s" depart="52" />
    <vehicle id="left_19" type="Car" route="s2n" depart="57" />
    <vehicle id="left_20" type="Car" route="s2n" depart="58" />
    <vehicle id="left_21" type="Car" route="s2n" depart="61" />
    <vehicle id="left_22" type="Car" route="s2n" depart="64" />
    <vehicle id="right_23" type="Car" route="n2s" depart="67" />
    <vehicle id="right_24" type="Car" route="n2s" depart="68" />
    <vehicle id="left_25" type="Car" route="s2n" depart="68" />
    <vehicle id="left_26" type="Car" route="s2n" depart="69" />
    <vehicle id="right_27" type="Car" route="n2s" depart="70" />
    <vehicle id="right_28" type="Car" route="n2s" depart="71" />
    <vehicle id="right_29" type="Car" route="n2s" depart="81" />
    <vehicle id="left_30" type="Car" route="s2n" depart="82" />
    <vehicle id="right_31" type="Car" route="n2s" depart="90" />
    <vehicle id="left_32" type="Car" route="s2n" depart="94" />
    <vehicle id="right_33" type="Car" route="n2s" depart="95" />
    <vehicle id="left_34" type="Car" route="s2n" depart="99" />
    <vehicle id="left_35" type="Car" route="s2n" depart="100" />
    <vehicle id="left_36" type="Car" route="s2n" depart="101" />
    <vehicle id="right_37" type="Car" route="n2s" depart="103" />
    <vehicle id="left_38" type="Car" route="s2n" depart="104" />
    <vehicle id="right_39" type="Car" route="n2s" depart="105" />
    <vehicle id="right_40" type="Car" route="n2s" depart="111" />
    <vehicle id="right_41" type="Car" route="n2s" depart="114" />
    <vehicle id="right_42" type="Car" route="n2s" depart="118" />
    <vehicle id="right_43" type="Car" route="n2s" depart="120" />
    <vehicle id="right_44" type="Car" route="n2s" depart="121" />
    <vehicle id="left_45" type="Car" route="s2n" depart="121" />
    <vehicle id="left_46" type="Car" route="s2n" depart="122" />
    <vehicle id="right_47" type="Car" route="n2s" depart="123" />
    <vehicle id="left_48" type="Car" route="s2n" depart="128" />
    <vehicle id="left_49" type="Car" route="s2n" depart="138" />
    <vehicle id="left_50" type="Car" route="s2n" depart="140" />
    <vehicle id="left_51" type="Car" route="s2n" depart="142" />
    <vehicle id="left_52" type="Car" route="s2n" depart="143" />
    <vehicle id="left_53" type="Car" route="s2n" depart="148" />
    <vehicle id="right_54" type="Car" route="n2s" depart="155" />
    <vehicle id="right_55" type="Car" route="n2s" depart="161" />
    <vehicle id="right_56" type="Car" route="n2s" depart="163" />
    <vehicle id="right_57" type="Car" route="n2s" depart="164" />
    <vehicle id="left_58" type="Car" route="s2n" depart="173" />
    <vehicle id="right_59" type="Car" route="n2s" depart="178" />
    <vehicle id="right_60" type="Car" route="n2s" depart="179" />
    <vehicle id="right_61" type="Car" route="n2s" depart="182" />
    <vehicle id="left_62" type="Car" route="s2n" depart="182" />
    <vehicle id="left_63" type="Car" route="s2n" depart="184" />
    <vehicle id="right_64" type="Car" route="n2s" depart="185" />
    <vehicle id="left_65" type="Car" route="s2n" depart="185" />
    <vehicle id="right_66" type="Car" route="n2s" depart="188" />
    <vehicle id="left_67" type="Car" route="s2n" depart="189" />
    <vehicle id="left_68" type="Car" route="s2n" depart="190" />
    <vehicle id="left_69" type="Car" route="s2n" depart="194" />
    <vehicle id="right_70" type="Car" route="n2s" depart="199" />
</routes>
