<routes>
            <vType accel="1.0" decel="5.0" id="Car" length="4.0" maxSpeed="100.0" sigma="0.0" departSpeed="13.89"/>
    
            <route id="n2s" edges="gneE2 -gneE3" />
            <route id="s2n" edges="gneE3 -gneE2" />
            <route id="w2e" edges="gneE0 -gneE1" />
    
            
    <vehicle id="right_0" type="Car" route="n2s" depart="0" />
    <vehicle id="right_1" type="Car" route="n2s" depart="0" />
    <vehicle id="left_2" type="Car" route="s2n" depart="0" />
    <vehicle id="right_3" type="Car" route="n2s" depart="2" />
    <vehicle id="right_4" type="Car" route="n2s" depart="2" />
    <vehicle id="left_5" type="Car" route="s2n" depart="2" />
    <vehicle id="right_6" type="Car" route="n2s" depart="3" />
    <vehicle id="right_7" type="Car" route="n2s" depart="4" />
    <vehicle id="right_8" type="Car" route="n2s" depart="4" />
    <vehicle id="left_9" type="Car" route="s2n" depart="4" />
    <vehicle id="ego" type="Car" route="w2e" depart="5" />
    <vehicle id="right_11" type="Car" route="n2s" depart="6" />
    <vehicle id="right_12" type="Car" route="n2s" depart="6" />
    <vehicle id="left_13" type="Car" route="s2n" depart="6" />
    <vehicle id="left_14" type="Car" route="s2n" depart="6" />
    <vehicle id="right_15" type="Car" route="n2s" depart="7" />
    <vehicle id="left_16" type="Car" route="s2n" depart="7" />
    <vehicle id="right_17" type="Car" route="n2s" depart="8" />
    <vehicle id="left_18" type="Car" route="s2n" depart="8" />
    <vehicle id="right_19" type="Car" route="n2s" depart="9" />
    <vehicle id="left_20" type="Car" route="s2n" depart="9" />
    <vehicle id="right_21" type="Car" route="n2s" depart="10" />
    <vehicle id="left_22" type="Car" route="s2n" depart="10" />
    <vehicle id="right_23" type="Car" route="n2s" depart="11" />
    <vehicle id="left_24" type="Car" route="s2n" depart="12" />
    <vehicle id="right_25" type="Car" route="n2s" depart="13" />
    <vehicle id="left_26" type="Car" route="s2n" depart="13" />
    <vehicle id="left_27" type="Car" route="s2n" depart="14" />
    <vehicle id="left_28" type="Car" route="s2n" depart="14" />
    <vehicle id="right_29" type="Car" route="n2s" depart="15" />
    <vehicle id="right_30" type="Car" route="n2s" depart="15" />
    <vehicle id="left_31" type="Car" route="s2n" depart="15" />
    <vehicle id="right_32" type="Car" route="n2s" depart="16" />
    <vehicle id="left_33" type="Car" route="s2n" depart="16" />
    <vehicle id="right_34" type="Car" route="n2s" depart="17" />
    <vehicle id="left_35" type="Car" route="s2n" depart="17" />
    <vehicle id="right_36" type="Car" route="n2s" depart="19" />
    <vehicle id="left_37" type="Car" route="s2n" depart="19" />
    <vehicle id="left_38" type="Car" route="s2n" depart="20" />
    <vehicle id="left_39" type="Car" route="s2n" depart="22" />
    <vehicle id="right_40" type="Car" route="n2s" depart="23" />
    <vehicle id="left_41" type="Car" route="s2n" depart="23" />
    <vehicle id="right_42" type="Car" route="n2s" depart="24" />
    <vehicle id="right_43" type="Car" route="n2s" depart="24" />
    <vehicle id="left_44" type="Car" route="s2n" depart="24" />
    <vehicle id="left_45" type="Car" route="s2n" depart="24" />
    <vehicle id="left_46" type="Car" route="s2n" depart="25" />
    <vehicle id="left_47" type="Car" route="s2n" depart="25" />
    <vehicle id="left_48" type="Car" route="s2n" depart="26" />
    <vehicle id="right_49" type="Car" route="n2s" depart="27" />
    <vehicle id="right_50" type="Car" route="n2s" depart="27" />
    <vehicle id="left_51" type="Car" route="s2n" depart="27" />
    <vehicle id="right_52" type="Car" route="n2s" depart="28" />
    <vehicle id="left_53" type="Car" route="s2n" depart="28" />
    <vehicle id="left_54" type="Car" route="s2n" depart="29" />
    <vehicle id="right_55" type="Car" route="n2s" depart="30" />
    <vehicle id="right_56" type="Car" route="n2s" depart="30" />
    <vehicle id="right_57" type="Car" route="n2s" depart="31" />
    <vehicle id="left_58" type="Car" route="s2n" depart="31" />
    <vehicle id="right_59" type="Car" route="n2s" depart="32" />
    <vehicle id="left_60" type="Car" route="s2n" depart="34" />
    <vehicle id="left_61" type="Car" route="s2n" depart="36" />
    <vehicle id="right_62" type="Car" route="n2s" depart="37" />
    <vehicle id="left_63" type="Car" route="s2n" depart="37" />
    <vehicle id="right_64" type="Car" route="n2s" depart="39" />
    <vehicle id="left_65" type="Car" route="s2n" depart="39" />
    <vehicle id="right_66" type="Car" route="n2s" depart="40" />
    <vehicle id="left_67" type="Car" route="s2n" depart="40" />
    <vehicle id="right_68" type="Car" route="n2s" depart="41" />
    <vehicle id="left_69" type="Car" route="s2n" depart="41" />
    <vehicle id="left_70" type="Car" route="s2n" depart="42" />
    <vehicle id="left_71" type="Car" route="s2n" depart="43" />
    <vehicle id="right_72" type="Car" route="n2s" depart="44" />
    <vehicle id="right_73" type="Car" route="n2s" depart="45" />
    <vehicle id="left_74" type="Car" route="s2n" depart="45" />
    <vehicle id="left_75" type="Car" route="s2n" depart="46" />
    <vehicle id="left_76" type="Car" route="s2n" depart="47" />
    <vehicle id="left_77" type="Car" route="s2n" depart="48" />
    <vehicle id="left_78" type="Car" route="s2n" depart="49" />
    <vehicle id="left_79" type="Car" route="s2n" depart="50" />
    <vehicle id="left_80" type="Car" route="s2n" depart="51" />
    <vehicle id="right_81" type="Car" route="n2s" depart="52" />
    <vehicle id="left_82" type="Car" route="s2n" depart="52" />
    <vehicle id="left_83" type="Car" route="s2n" depart="53" />
    <vehicle id="right_84" type="Car" route="n2s" depart="54" />
    <vehicle id="left_85" type="Car" route="s2n" depart="55" />
    <vehicle id="left_86" type="Car" route="s2n" depart="57" />
    <vehicle id="left_87" type="Car" route="s2n" depart="59" />
    <vehicle id="left_88" type="Car" route="s2n" depart="60" />
    <vehicle id="right_89" type="Car" route="n2s" depart="61" />
    <vehicle id="left_90" type="Car" route="s2n" depart="61" />
    <vehicle id="right_91" type="Car" route="n2s" depart="63" />
    <vehicle id="left_92" type="Car" route="s2n" depart="63" />
    <vehicle id="right_93" type="Car" route="n2s" depart="64" />
    <vehicle id="left_94" type="Car" route="s2n" depart="64" />
    <vehicle id="left_95" type="Car" route="s2n" depart="65" />
    <vehicle id="right_96" type="Car" route="n2s" depart="66" />
    <vehicle id="left_97" type="Car" route="s2n" depart="66" />
    <vehicle id="left_98" type="Car" route="s2n" depart="66" />
    <vehicle id="right_99" type="Car" route="n2s" depart="67" />
    <vehicle id="left_100" type="Car" route="s2n" depart="67" />
    <vehicle id="left_101" type="Car" route="s2n" depart="68" />
    <vehicle id="right_102" type="Car" route="n2s" depart="71" />
    <vehicle id="left_103" type="Car" route="s2n" depart="71" />
    <vehicle id="left_104" type="Car" route="s2n" depart="72" />
    <vehicle id="left_105" type="Car" route="s2n" depart="72" />
    <vehicle id="right_106" type="Car" route="n2s" depart="74" />
    <vehicle id="left_107" type="Car" route="s2n" depart="74" />
    <vehicle id="left_108" type="Car" route="s2n" depart="74" />
    <vehicle id="right_109" type="Car" route="n2s" depart="75" />
    <vehicle id="left_110" type="Car" route="s2n" depart="75" />
    <vehicle id="left_111" type="Car" route="s2n" depart="76" />
    <vehicle id="right_112" type="Car" route="n2s" depart="77" />
    <vehicle id="left_113" type="Car" route="s2n" depart="77" />
    <vehicle id="left_114" type="Car" route="s2n" depart="78" />
    <vehicle id="right_115" type="Car" route="n2s" depart="79" />
    <vehicle id="left_116" type="Car" route="s2n" depart="79" />
    <vehicle id="left_117" type="Car" route="s2n" depart="79" />
    <vehicle id="right_118" type="Car" route="n2s" depart="80" />
    <vehicle id="left_119" type="Car" route="s2n" depart="80" />
    <vehicle id="left_120" type="Car" route="s2n" depart="81" />
    <vehicle id="left_121" type="Car" route="s2n" depart="81" />
    <vehicle id="left_122" type="Car" route="s2n" depart="82" />
    <vehicle id="right_123" type="Car" route="n2s" depart="83" />
    <vehicle id="right_124" type="Car" route="n2s" depart="83" />
    <vehicle id="left_125" type="Car" route="s2n" depart="83" />
    <vehicle id="left_126" type="Car" route="s2n" depart="84" />
    <vehicle id="left_127" type="Car" route="s2n" depart="84" />
    <vehicle id="right_128" type="Car" route="n2s" depart="86" />
    <vehicle id="right_129" type="Car" route="n2s" depart="86" />
    <vehicle id="left_130" type="Car" route="s2n" depart="86" />
    <vehicle id="left_131" type="Car" route="s2n" depart="86" />
    <vehicle id="right_132" type="Car" route="n2s" depart="88" />
    <vehicle id="left_133" type="Car" route="s2n" depart="89" />
    <vehicle id="left_134" type="Car" route="s2n" depart="89" />
    <vehicle id="left_135" type="Car" route="s2n" depart="90" />
    <vehicle id="left_136" type="Car" route="s2n" depart="92" />
    <vehicle id="left_137" type="Car" route="s2n" depart="93" />
    <vehicle id="left_138" type="Car" route="s2n" depart="95" />
    <vehicle id="left_139" type="Car" route="s2n" depart="95" />
    <vehicle id="right_140" type="Car" route="n2s" depart="97" />
    <vehicle id="right_141" type="Car" route="n2s" depart="98" />
    <vehicle id="left_142" type="Car" route="s2n" depart="98" />
    <vehicle id="right_143" type="Car" route="n2s" depart="99" />
    <vehicle id="right_144" type="Car" route="n2s" depart="101" />
    <vehicle id="left_145" type="Car" route="s2n" depart="101" />
    <vehicle id="right_146" type="Car" route="n2s" depart="102" />
    <vehicle id="right_147" type="Car" route="n2s" depart="102" />
    <vehicle id="left_148" type="Car" route="s2n" depart="103" />
    <vehicle id="left_149" type="Car" route="s2n" depart="103" />
    <vehicle id="right_150" type="Car" route="n2s" depart="104" />
    <vehicle id="right_151" type="Car" route="n2s" depart="104" />
    <vehicle id="right_152" type="Car" route="n2s" depart="106" />
    <vehicle id="right_153" type="Car" route="n2s" depart="106" />
    <vehicle id="right_154" type="Car" route="n2s" depart="107" />
    <vehicle id="right_155" type="Car" route="n2s" depart="107" />
    <vehicle id="left_156" type="Car" route="s2n" depart="107" />
    <vehicle id="left_157" type="Car" route="s2n" depart="107" />
    <vehicle id="right_158" type="Car" route="n2s" depart="108" />
    <vehicle id="left_159" type="Car" route="s2n" depart="108" />
    <vehicle id="right_160" type="Car" route="n2s" depart="109" />
    <vehicle id="left_161" type="Car" route="s2n" depart="109" />
    <vehicle id="left_162" type="Car" route="s2n" depart="110" />
    <vehicle id="right_163" type="Car" route="n2s" depart="111" />
    <vehicle id="right_164" type="Car" route="n2s" depart="112" />
    <vehicle id="left_165" type="Car" route="s2n" depart="113" />
    <vehicle id="right_166" type="Car" route="n2s" depart="115" />
    <vehicle id="right_167" type="Car" route="n2s" depart="116" />
    <vehicle id="left_168" type="Car" route="s2n" depart="116" />
    <vehicle id="left_169" type="Car" route="s2n" depart="117" />
    <vehicle id="left_170" type="Car" route="s2n" depart="118" />
    <vehicle id="right_171" type="Car" route="n2s" depart="119" />
    <vehicle id="left_172" type="Car" route="s2n" depart="119" />
    <vehicle id="left_173" type="Car" route="s2n" depart="120" />
    <vehicle id="left_174" type="Car" route="s2n" depart="120" />
    <vehicle id="right_175" type="Car" route="n2s" depart="121" />
    <vehicle id="left_176" type="Car" route="s2n" depart="122" />
    <vehicle id="right_177" type="Car" route="n2s" depart="123" />
    <vehicle id="left_178" type="Car" route="s2n" depart="123" />
    <vehicle id="right_179" type="Car" route="n2s" depart="124" />
    <vehicle id="left_180" type="Car" route="s2n" depart="124" />
    <vehicle id="left_181" type="Car" route="s2n" depart="125" />
    <vehicle id="right_182" type="Car" route="n2s" depart="127" />
    <vehicle id="left_183" type="Car" route="s2n" depart="127" />
    <vehicle id="left_184" type="Car" route="s2n" depart="128" />
    <vehicle id="right_185" type="Car" route="n2s" depart="130" />
    <vehicle id="left_186" type="Car" route="s2n" depart="130" />
    <vehicle id="left_187" type="Car" route="s2n" depart="131" />
    <vehicle id="right_188" type="Car" route="n2s" depart="133" />
    <vehicle id="right_189" type="Car" route="n2s" depart="133" />
    <vehicle id="left_190" type="Car" route="s2n" depart="133" />
    <vehicle id="left_191" type="Car" route="s2n" depart="133" />
    <vehicle id="right_192" type="Car" route="n2s" depart="134" />
    <vehicle id="left_193" type="Car" route="s2n" depart="134" />
    <vehicle id="left_194" type="Car" route="s2n" depart="134" />
    <vehicle id="left_195" type="Car" route="s2n" depart="135" />
    <vehicle id="left_196" type="Car" route="s2n" depart="136" />
    <vehicle id="right_197" type="Car" route="n2s" depart="137" />
    <vehicle id="left_198" type="Car" route="s2n" depart="138" />
    <vehicle id="left_199" type="Car" route="s2n" depart="140" />
    <vehicle id="left_200" type="Car" route="s2n" depart="141" />
    <vehicle id="left_201" type="Car" route="s2n" depart="141" />
    <vehicle id="right_202" type="Car" route="n2s" depart="142" />
    <vehicle id="left_203" type="Car" route="s2n" depart="142" />
    <vehicle id="right_204" type="Car" route="n2s" depart="143" />
    <vehicle id="right_205" type="Car" route="n2s" depart="143" />
    <vehicle id="left_206" type="Car" route="s2n" depart="143" />
    <vehicle id="left_207" type="Car" route="s2n" depart="144" />
    <vehicle id="left_208" type="Car" route="s2n" depart="144" />
    <vehicle id="left_209" type="Car" route="s2n" depart="145" />
    <vehicle id="left_210" type="Car" route="s2n" depart="146" />
    <vehicle id="left_211" type="Car" route="s2n" depart="147" />
    <vehicle id="left_212" type="Car" route="s2n" depart="148" />
    <vehicle id="left_213" type="Car" route="s2n" depart="149" />
    <vehicle id="left_214" type="Car" route="s2n" depart="150" />
    <vehicle id="right_215" type="Car" route="n2s" depart="151" />
    <vehicle id="right_216" type="Car" route="n2s" depart="151" />
    <vehicle id="left_217" type="Car" route="s2n" depart="151" />
    <vehicle id="left_218" type="Car" route="s2n" depart="152" />
    <vehicle id="right_219" type="Car" route="n2s" depart="153" />
    <vehicle id="left_220" type="Car" route="s2n" depart="153" />
    <vehicle id="left_221" type="Car" route="s2n" depart="154" />
    <vehicle id="left_222" type="Car" route="s2n" depart="155" />
    <vehicle id="left_223" type="Car" route="s2n" depart="155" />
    <vehicle id="left_224" type="Car" route="s2n" depart="156" />
    <vehicle id="left_225" type="Car" route="s2n" depart="156" />
    <vehicle id="left_226" type="Car" route="s2n" depart="157" />
    <vehicle id="left_227" type="Car" route="s2n" depart="157" />
    <vehicle id="left_228" type="Car" route="s2n" depart="158" />
    <vehicle id="right_229" type="Car" route="n2s" depart="159" />
    <vehicle id="left_230" type="Car" route="s2n" depart="159" />
    <vehicle id="left_231" type="Car" route="s2n" depart="159" />
    <vehicle id="right_232" type="Car" route="n2s" depart="160" />
    <vehicle id="right_233" type="Car" route="n2s" depart="160" />
    <vehicle id="left_234" type="Car" route="s2n" depart="160" />
    <vehicle id="left_235" type="Car" route="s2n" depart="163" />
    <vehicle id="left_236" type="Car" route="s2n" depart="163" />
    <vehicle id="right_237" type="Car" route="n2s" depart="165" />
    <vehicle id="left_238" type="Car" route="s2n" depart="165" />
    <vehicle id="left_239" type="Car" route="s2n" depart="166" />
    <vehicle id="left_240" type="Car" route="s2n" depart="166" />
    <vehicle id="left_241" type="Car" route="s2n" depart="167" />
    <vehicle id="right_242" type="Car" route="n2s" depart="168" />
    <vehicle id="left_243" type="Car" route="s2n" depart="169" />
    <vehicle id="left_244" type="Car" route="s2n" depart="170" />
    <vehicle id="left_245" type="Car" route="s2n" depart="170" />
    <vehicle id="left_246" type="Car" route="s2n" depart="171" />
    <vehicle id="right_247" type="Car" route="n2s" depart="172" />
    <vehicle id="left_248" type="Car" route="s2n" depart="172" />
    <vehicle id="left_249" type="Car" route="s2n" depart="173" />
    <vehicle id="right_250" type="Car" route="n2s" depart="174" />
    <vehicle id="left_251" type="Car" route="s2n" depart="174" />
    <vehicle id="left_252" type="Car" route="s2n" depart="175" />
    <vehicle id="left_253" type="Car" route="s2n" depart="175" />
    <vehicle id="left_254" type="Car" route="s2n" depart="176" />
    <vehicle id="right_255" type="Car" route="n2s" depart="177" />
    <vehicle id="left_256" type="Car" route="s2n" depart="177" />
    <vehicle id="left_257" type="Car" route="s2n" depart="177" />
    <vehicle id="right_258" type="Car" route="n2s" depart="179" />
    <vehicle id="left_259" type="Car" route="s2n" depart="179" />
    <vehicle id="left_260" type="Car" route="s2n" depart="180" />
    <vehicle id="left_261" type="Car" route="s2n" depart="181" />
    <vehicle id="right_262" type="Car" route="n2s" depart="182" />
    <vehicle id="left_263" type="Car" route="s2n" depart="182" />
    <vehicle id="left_264" type="Car" route="s2n" depart="182" />
    <vehicle id="left_265" type="Car" route="s2n" depart="184" />
    <vehicle id="right_266" type="Car" route="n2s" depart="185" />
    <vehicle id="left_267" type="Car" route="s2n" depart="185" />
    <vehicle id="left_268" type="Car" route="s2n" depart="185" />
    <vehicle id="left_269" type="Car" route="s2n" depart="186" />
    <vehicle id="right_270" type="Car" route="n2s" depart="187" />
    <vehicle id="left_271" type="Car" route="s2n" depart="187" />
    <vehicle id="right_272" type="Car" route="n2s" depart="188" />
    <vehicle id="left_273" type="Car" route="s2n" depart="188" />
    <vehicle id="left_274" type="Car" route="s2n" depart="188" />
    <vehicle id="left_275" type="Car" route="s2n" depart="189" />
    <vehicle id="right_276" type="Car" route="n2s" depart="191" />
    <vehicle id="left_277" type="Car" route="s2n" depart="191" />
    <vehicle id="left_278" type="Car" route="s2n" depart="193" />
    <vehicle id="right_279" type="Car" route="n2s" depart="194" />
    <vehicle id="left_280" type="Car" route="s2n" depart="194" />
    <vehicle id="right_281" type="Car" route="n2s" depart="195" />
    <vehicle id="left_282" type="Car" route="s2n" depart="195" />
    <vehicle id="right_283" type="Car" route="n2s" depart="196" />
    <vehicle id="left_284" type="Car" route="s2n" depart="196" />
    <vehicle id="left_285" type="Car" route="s2n" depart="197" />
</routes>
