<routes>
            <vType accel="1.0" decel="5.0" id="Car" length="2.0" maxSpeed="100.0" sigma="0.0" departSpeed="13.89"/>
            
            <route id="n2s" edges="gneE2 -gneE3" />
            <route id="s2n" edges="gneE3 -gneE2" />
            <route id="w2e" edges="gneE0 -gneE1" />
            <route id="w2e" edges="gneE0 -gneE1" />
    
            
    <vehicle id="left_0" type="Car" route="s2n" depart="0" />
    <vehicle id="left_1" type="Car" route="s2n" depart="0" />
    <vehicle id="right_2" type="Car" route="n2s" depart="1" />
    <vehicle id="left_3" type="Car" route="s2n" depart="1" />
    <vehicle id="right_4" type="Car" route="n2s" depart="2" />
    <vehicle id="left_5" type="Car" route="s2n" depart="2" />
    <vehicle id="left_6" type="Car" route="s2n" depart="3" />
    <vehicle id="ego" type="Car" route="w2e" depart="5" />
    <vehicle id="left_8" type="Car" route="s2n" depart="5" />
    <vehicle id="left_9" type="Car" route="s2n" depart="5" />
    <vehicle id="right_10" type="Car" route="n2s" depart="6" />
    <vehicle id="right_11" type="Car" route="n2s" depart="6" />
    <vehicle id="right_12" type="Car" route="n2s" depart="8" />
    <vehicle id="right_13" type="Car" route="n2s" depart="8" />
    <vehicle id="left_14" type="Car" route="s2n" depart="8" />
    <vehicle id="right_15" type="Car" route="n2s" depart="10" />
    <vehicle id="left_16" type="Car" route="s2n" depart="10" />
    <vehicle id="left_17" type="Car" route="s2n" depart="11" />
    <vehicle id="right_18" type="Car" route="n2s" depart="12" />
    <vehicle id="right_19" type="Car" route="n2s" depart="14" />
    <vehicle id="left_20" type="Car" route="s2n" depart="14" />
    <vehicle id="left_21" type="Car" route="s2n" depart="15" />
    <vehicle id="right_22" type="Car" route="n2s" depart="16" />
    <vehicle id="left_23" type="Car" route="s2n" depart="16" />
    <vehicle id="right_24" type="Car" route="n2s" depart="17" />
    <vehicle id="left_25" type="Car" route="s2n" depart="17" />
    <vehicle id="left_26" type="Car" route="s2n" depart="18" />
    <vehicle id="left_27" type="Car" route="s2n" depart="18" />
    <vehicle id="right_28" type="Car" route="n2s" depart="19" />
    <vehicle id="left_29" type="Car" route="s2n" depart="19" />
    <vehicle id="right_30" type="Car" route="n2s" depart="20" />
    <vehicle id="right_31" type="Car" route="n2s" depart="20" />
    <vehicle id="left_32" type="Car" route="s2n" depart="20" />
    <vehicle id="right_33" type="Car" route="n2s" depart="21" />
    <vehicle id="left_34" type="Car" route="s2n" depart="21" />
    <vehicle id="right_35" type="Car" route="n2s" depart="22" />
    <vehicle id="left_36" type="Car" route="s2n" depart="22" />
    <vehicle id="right_37" type="Car" route="n2s" depart="23" />
    <vehicle id="left_38" type="Car" route="s2n" depart="23" />
    <vehicle id="right_39" type="Car" route="n2s" depart="24" />
    <vehicle id="right_40" type="Car" route="n2s" depart="24" />
    <vehicle id="left_41" type="Car" route="s2n" depart="24" />
    <vehicle id="left_42" type="Car" route="s2n" depart="25" />
    <vehicle id="left_43" type="Car" route="s2n" depart="25" />
    <vehicle id="right_44" type="Car" route="n2s" depart="26" />
    <vehicle id="left_45" type="Car" route="s2n" depart="26" />
    <vehicle id="left_46" type="Car" route="s2n" depart="26" />
    <vehicle id="right_47" type="Car" route="n2s" depart="27" />
    <vehicle id="left_48" type="Car" route="s2n" depart="27" />
    <vehicle id="right_49" type="Car" route="n2s" depart="28" />
    <vehicle id="left_50" type="Car" route="s2n" depart="28" />
    <vehicle id="left_51" type="Car" route="s2n" depart="28" />
    <vehicle id="left_52" type="Car" route="s2n" depart="29" />
    <vehicle id="right_53" type="Car" route="n2s" depart="30" />
    <vehicle id="left_54" type="Car" route="s2n" depart="30" />
    <vehicle id="right_55" type="Car" route="n2s" depart="31" />
    <vehicle id="right_56" type="Car" route="n2s" depart="34" />
    <vehicle id="left_57" type="Car" route="s2n" depart="34" />
    <vehicle id="right_58" type="Car" route="n2s" depart="35" />
    <vehicle id="left_59" type="Car" route="s2n" depart="35" />
    <vehicle id="right_60" type="Car" route="n2s" depart="36" />
    <vehicle id="right_61" type="Car" route="n2s" depart="36" />
    <vehicle id="left_62" type="Car" route="s2n" depart="36" />
    <vehicle id="right_63" type="Car" route="n2s" depart="38" />
    <vehicle id="left_64" type="Car" route="s2n" depart="38" />
    <vehicle id="right_65" type="Car" route="n2s" depart="39" />
    <vehicle id="left_66" type="Car" route="s2n" depart="39" />
    <vehicle id="right_67" type="Car" route="n2s" depart="40" />
    <vehicle id="left_68" type="Car" route="s2n" depart="40" />
    <vehicle id="right_69" type="Car" route="n2s" depart="41" />
    <vehicle id="right_70" type="Car" route="n2s" depart="41" />
    <vehicle id="left_71" type="Car" route="s2n" depart="41" />
    <vehicle id="left_72" type="Car" route="s2n" depart="41" />
    <vehicle id="left_73" type="Car" route="s2n" depart="42" />
    <vehicle id="right_74" type="Car" route="n2s" depart="43" />
    <vehicle id="left_75" type="Car" route="s2n" depart="43" />
    <vehicle id="left_76" type="Car" route="s2n" depart="43" />
    <vehicle id="right_77" type="Car" route="n2s" depart="45" />
    <vehicle id="right_78" type="Car" route="n2s" depart="45" />
    <vehicle id="left_79" type="Car" route="s2n" depart="45" />
    <vehicle id="right_80" type="Car" route="n2s" depart="46" />
    <vehicle id="right_81" type="Car" route="n2s" depart="47" />
    <vehicle id="left_82" type="Car" route="s2n" depart="47" />
    <vehicle id="right_83" type="Car" route="n2s" depart="48" />
    <vehicle id="left_84" type="Car" route="s2n" depart="48" />
    <vehicle id="left_85" type="Car" route="s2n" depart="48" />
    <vehicle id="right_86" type="Car" route="n2s" depart="49" />
    <vehicle id="left_87" type="Car" route="s2n" depart="49" />
    <vehicle id="right_88" type="Car" route="n2s" depart="50" />
    <vehicle id="left_89" type="Car" route="s2n" depart="50" />
    <vehicle id="right_90" type="Car" route="n2s" depart="51" />
    <vehicle id="left_91" type="Car" route="s2n" depart="51" />
    <vehicle id="left_92" type="Car" route="s2n" depart="51" />
    <vehicle id="left_93" type="Car" route="s2n" depart="52" />
    <vehicle id="right_94" type="Car" route="n2s" depart="53" />
    <vehicle id="left_95" type="Car" route="s2n" depart="53" />
    <vehicle id="right_96" type="Car" route="n2s" depart="54" />
    <vehicle id="left_97" type="Car" route="s2n" depart="54" />
    <vehicle id="left_98" type="Car" route="s2n" depart="54" />
    <vehicle id="left_99" type="Car" route="s2n" depart="55" />
    <vehicle id="right_100" type="Car" route="n2s" depart="56" />
    <vehicle id="left_101" type="Car" route="s2n" depart="56" />
    <vehicle id="right_102" type="Car" route="n2s" depart="57" />
    <vehicle id="left_103" type="Car" route="s2n" depart="57" />
    <vehicle id="left_104" type="Car" route="s2n" depart="58" />
    <vehicle id="right_105" type="Car" route="n2s" depart="59" />
    <vehicle id="left_106" type="Car" route="s2n" depart="59" />
    <vehicle id="right_107" type="Car" route="n2s" depart="60" />
    <vehicle id="right_108" type="Car" route="n2s" depart="60" />
    <vehicle id="left_109" type="Car" route="s2n" depart="60" />
    <vehicle id="right_110" type="Car" route="n2s" depart="61" />
    <vehicle id="left_111" type="Car" route="s2n" depart="61" />
    <vehicle id="right_112" type="Car" route="n2s" depart="63" />
    <vehicle id="left_113" type="Car" route="s2n" depart="63" />
    <vehicle id="left_114" type="Car" route="s2n" depart="63" />
    <vehicle id="right_115" type="Car" route="n2s" depart="64" />
    <vehicle id="left_116" type="Car" route="s2n" depart="64" />
    <vehicle id="right_117" type="Car" route="n2s" depart="65" />
    <vehicle id="right_118" type="Car" route="n2s" depart="65" />
    <vehicle id="left_119" type="Car" route="s2n" depart="65" />
    <vehicle id="right_120" type="Car" route="n2s" depart="66" />
    <vehicle id="right_121" type="Car" route="n2s" depart="66" />
    <vehicle id="left_122" type="Car" route="s2n" depart="66" />
    <vehicle id="left_123" type="Car" route="s2n" depart="67" />
    <vehicle id="left_124" type="Car" route="s2n" depart="68" />
    <vehicle id="left_125" type="Car" route="s2n" depart="69" />
    <vehicle id="right_126" type="Car" route="n2s" depart="70" />
    <vehicle id="right_127" type="Car" route="n2s" depart="70" />
    <vehicle id="left_128" type="Car" route="s2n" depart="70" />
    <vehicle id="left_129" type="Car" route="s2n" depart="70" />
    <vehicle id="right_130" type="Car" route="n2s" depart="71" />
    <vehicle id="left_131" type="Car" route="s2n" depart="71" />
    <vehicle id="right_132" type="Car" route="n2s" depart="73" />
    <vehicle id="left_133" type="Car" route="s2n" depart="73" />
    <vehicle id="left_134" type="Car" route="s2n" depart="73" />
    <vehicle id="right_135" type="Car" route="n2s" depart="74" />
    <vehicle id="left_136" type="Car" route="s2n" depart="74" />
    <vehicle id="left_137" type="Car" route="s2n" depart="75" />
    <vehicle id="right_138" type="Car" route="n2s" depart="76" />
    <vehicle id="left_139" type="Car" route="s2n" depart="76" />
    <vehicle id="left_140" type="Car" route="s2n" depart="77" />
    <vehicle id="left_141" type="Car" route="s2n" depart="77" />
    <vehicle id="left_142" type="Car" route="s2n" depart="78" />
    <vehicle id="left_143" type="Car" route="s2n" depart="78" />
    <vehicle id="left_144" type="Car" route="s2n" depart="79" />
    <vehicle id="right_145" type="Car" route="n2s" depart="80" />
    <vehicle id="left_146" type="Car" route="s2n" depart="80" />
    <vehicle id="left_147" type="Car" route="s2n" depart="81" />
    <vehicle id="left_148" type="Car" route="s2n" depart="81" />
    <vehicle id="right_149" type="Car" route="n2s" depart="82" />
    <vehicle id="left_150" type="Car" route="s2n" depart="83" />
    <vehicle id="left_151" type="Car" route="s2n" depart="83" />
    <vehicle id="right_152" type="Car" route="n2s" depart="84" />
    <vehicle id="right_153" type="Car" route="n2s" depart="86" />
    <vehicle id="left_154" type="Car" route="s2n" depart="86" />
    <vehicle id="left_155" type="Car" route="s2n" depart="87" />
    <vehicle id="left_156" type="Car" route="s2n" depart="88" />
    <vehicle id="right_157" type="Car" route="n2s" depart="89" />
    <vehicle id="left_158" type="Car" route="s2n" depart="89" />
    <vehicle id="right_159" type="Car" route="n2s" depart="90" />
    <vehicle id="right_160" type="Car" route="n2s" depart="91" />
    <vehicle id="left_161" type="Car" route="s2n" depart="91" />
    <vehicle id="right_162" type="Car" route="n2s" depart="92" />
    <vehicle id="left_163" type="Car" route="s2n" depart="92" />
    <vehicle id="left_164" type="Car" route="s2n" depart="92" />
    <vehicle id="right_165" type="Car" route="n2s" depart="93" />
    <vehicle id="right_166" type="Car" route="n2s" depart="94" />
    <vehicle id="left_167" type="Car" route="s2n" depart="94" />
    <vehicle id="left_168" type="Car" route="s2n" depart="94" />
    <vehicle id="right_169" type="Car" route="n2s" depart="95" />
    <vehicle id="left_170" type="Car" route="s2n" depart="95" />
    <vehicle id="left_171" type="Car" route="s2n" depart="96" />
    <vehicle id="right_172" type="Car" route="n2s" depart="97" />
    <vehicle id="right_173" type="Car" route="n2s" depart="98" />
    <vehicle id="left_174" type="Car" route="s2n" depart="98" />
    <vehicle id="left_175" type="Car" route="s2n" depart="99" />
    <vehicle id="left_176" type="Car" route="s2n" depart="99" />
    <vehicle id="left_177" type="Car" route="s2n" depart="100" />
    <vehicle id="left_178" type="Car" route="s2n" depart="100" />
    <vehicle id="right_179" type="Car" route="n2s" depart="101" />
    <vehicle id="left_180" type="Car" route="s2n" depart="101" />
    <vehicle id="left_181" type="Car" route="s2n" depart="103" />
    <vehicle id="right_182" type="Car" route="n2s" depart="104" />
    <vehicle id="left_183" type="Car" route="s2n" depart="105" />
    <vehicle id="right_184" type="Car" route="n2s" depart="106" />
    <vehicle id="right_185" type="Car" route="n2s" depart="106" />
    <vehicle id="left_186" type="Car" route="s2n" depart="106" />
    <vehicle id="right_187" type="Car" route="n2s" depart="108" />
    <vehicle id="left_188" type="Car" route="s2n" depart="108" />
    <vehicle id="right_189" type="Car" route="n2s" depart="109" />
    <vehicle id="left_190" type="Car" route="s2n" depart="109" />
    <vehicle id="right_191" type="Car" route="n2s" depart="111" />
    <vehicle id="left_192" type="Car" route="s2n" depart="111" />
    <vehicle id="left_193" type="Car" route="s2n" depart="111" />
    <vehicle id="right_194" type="Car" route="n2s" depart="112" />
    <vehicle id="left_195" type="Car" route="s2n" depart="112" />
    <vehicle id="left_196" type="Car" route="s2n" depart="112" />
    <vehicle id="left_197" type="Car" route="s2n" depart="113" />
    <vehicle id="right_198" type="Car" route="n2s" depart="114" />
    <vehicle id="left_199" type="Car" route="s2n" depart="114" />
    <vehicle id="left_200" type="Car" route="s2n" depart="115" />
    <vehicle id="right_201" type="Car" route="n2s" depart="116" />
    <vehicle id="right_202" type="Car" route="n2s" depart="116" />
    <vehicle id="left_203" type="Car" route="s2n" depart="116" />
    <vehicle id="left_204" type="Car" route="s2n" depart="117" />
    <vehicle id="right_205" type="Car" route="n2s" depart="119" />
    <vehicle id="left_206" type="Car" route="s2n" depart="119" />
    <vehicle id="left_207" type="Car" route="s2n" depart="119" />
    <vehicle id="left_208" type="Car" route="s2n" depart="120" />
    <vehicle id="left_209" type="Car" route="s2n" depart="121" />
    <vehicle id="left_210" type="Car" route="s2n" depart="121" />
    <vehicle id="right_211" type="Car" route="n2s" depart="122" />
    <vehicle id="left_212" type="Car" route="s2n" depart="122" />
    <vehicle id="left_213" type="Car" route="s2n" depart="123" />
    <vehicle id="right_214" type="Car" route="n2s" depart="124" />
    <vehicle id="left_215" type="Car" route="s2n" depart="124" />
    <vehicle id="right_216" type="Car" route="n2s" depart="125" />
    <vehicle id="left_217" type="Car" route="s2n" depart="125" />
    <vehicle id="left_218" type="Car" route="s2n" depart="126" />
    <vehicle id="left_219" type="Car" route="s2n" depart="127" />
    <vehicle id="right_220" type="Car" route="n2s" depart="128" />
    <vehicle id="right_221" type="Car" route="n2s" depart="128" />
    <vehicle id="left_222" type="Car" route="s2n" depart="128" />
    <vehicle id="right_223" type="Car" route="n2s" depart="129" />
    <vehicle id="left_224" type="Car" route="s2n" depart="129" />
    <vehicle id="right_225" type="Car" route="n2s" depart="130" />
    <vehicle id="left_226" type="Car" route="s2n" depart="130" />
    <vehicle id="left_227" type="Car" route="s2n" depart="131" />
    <vehicle id="left_228" type="Car" route="s2n" depart="131" />
    <vehicle id="right_229" type="Car" route="n2s" depart="132" />
    <vehicle id="right_230" type="Car" route="n2s" depart="132" />
    <vehicle id="left_231" type="Car" route="s2n" depart="132" />
    <vehicle id="right_232" type="Car" route="n2s" depart="133" />
    <vehicle id="left_233" type="Car" route="s2n" depart="133" />
    <vehicle id="right_234" type="Car" route="n2s" depart="134" />
    <vehicle id="left_235" type="Car" route="s2n" depart="134" />
    <vehicle id="right_236" type="Car" route="n2s" depart="135" />
    <vehicle id="right_237" type="Car" route="n2s" depart="135" />
    <vehicle id="left_238" type="Car" route="s2n" depart="135" />
    <vehicle id="left_239" type="Car" route="s2n" depart="136" />
    <vehicle id="left_240" type="Car" route="s2n" depart="136" />
    <vehicle id="right_241" type="Car" route="n2s" depart="137" />
    <vehicle id="right_242" type="Car" route="n2s" depart="137" />
    <vehicle id="right_243" type="Car" route="n2s" depart="138" />
    <vehicle id="left_244" type="Car" route="s2n" depart="138" />
    <vehicle id="left_245" type="Car" route="s2n" depart="138" />
    <vehicle id="left_246" type="Car" route="s2n" depart="139" />
    <vehicle id="right_247" type="Car" route="n2s" depart="140" />
    <vehicle id="right_248" type="Car" route="n2s" depart="141" />
    <vehicle id="right_249" type="Car" route="n2s" depart="142" />
    <vehicle id="left_250" type="Car" route="s2n" depart="142" />
    <vehicle id="right_251" type="Car" route="n2s" depart="143" />
    <vehicle id="left_252" type="Car" route="s2n" depart="144" />
    <vehicle id="right_253" type="Car" route="n2s" depart="145" />
    <vehicle id="left_254" type="Car" route="s2n" depart="145" />
    <vehicle id="left_255" type="Car" route="s2n" depart="146" />
    <vehicle id="left_256" type="Car" route="s2n" depart="147" />
    <vehicle id="left_257" type="Car" route="s2n" depart="148" />
    <vehicle id="left_258" type="Car" route="s2n" depart="148" />
    <vehicle id="right_259" type="Car" route="n2s" depart="149" />
    <vehicle id="left_260" type="Car" route="s2n" depart="149" />
    <vehicle id="left_261" type="Car" route="s2n" depart="150" />
    <vehicle id="left_262" type="Car" route="s2n" depart="151" />
    <vehicle id="right_263" type="Car" route="n2s" depart="152" />
    <vehicle id="right_264" type="Car" route="n2s" depart="152" />
    <vehicle id="left_265" type="Car" route="s2n" depart="152" />
    <vehicle id="right_266" type="Car" route="n2s" depart="153" />
    <vehicle id="left_267" type="Car" route="s2n" depart="153" />
    <vehicle id="left_268" type="Car" route="s2n" depart="153" />
    <vehicle id="right_269" type="Car" route="n2s" depart="154" />
    <vehicle id="right_270" type="Car" route="n2s" depart="155" />
    <vehicle id="right_271" type="Car" route="n2s" depart="156" />
    <vehicle id="left_272" type="Car" route="s2n" depart="156" />
    <vehicle id="left_273" type="Car" route="s2n" depart="156" />
    <vehicle id="left_274" type="Car" route="s2n" depart="157" />
    <vehicle id="left_275" type="Car" route="s2n" depart="157" />
    <vehicle id="right_276" type="Car" route="n2s" depart="158" />
    <vehicle id="left_277" type="Car" route="s2n" depart="158" />
    <vehicle id="left_278" type="Car" route="s2n" depart="159" />
    <vehicle id="left_279" type="Car" route="s2n" depart="160" />
    <vehicle id="left_280" type="Car" route="s2n" depart="161" />
    <vehicle id="left_281" type="Car" route="s2n" depart="162" />
    <vehicle id="left_282" type="Car" route="s2n" depart="162" />
    <vehicle id="right_283" type="Car" route="n2s" depart="163" />
    <vehicle id="left_284" type="Car" route="s2n" depart="163" />
    <vehicle id="right_285" type="Car" route="n2s" depart="164" />
    <vehicle id="right_286" type="Car" route="n2s" depart="164" />
    <vehicle id="left_287" type="Car" route="s2n" depart="164" />
    <vehicle id="right_288" type="Car" route="n2s" depart="165" />
    <vehicle id="left_289" type="Car" route="s2n" depart="165" />
    <vehicle id="left_290" type="Car" route="s2n" depart="167" />
    <vehicle id="left_291" type="Car" route="s2n" depart="168" />
    <vehicle id="left_292" type="Car" route="s2n" depart="168" />
    <vehicle id="left_293" type="Car" route="s2n" depart="169" />
    <vehicle id="left_294" type="Car" route="s2n" depart="170" />
    <vehicle id="right_295" type="Car" route="n2s" depart="171" />
    <vehicle id="right_296" type="Car" route="n2s" depart="171" />
    <vehicle id="right_297" type="Car" route="n2s" depart="172" />
    <vehicle id="left_298" type="Car" route="s2n" depart="172" />
    <vehicle id="left_299" type="Car" route="s2n" depart="172" />
    <vehicle id="left_300" type="Car" route="s2n" depart="173" />
    <vehicle id="right_301" type="Car" route="n2s" depart="174" />
    <vehicle id="right_302" type="Car" route="n2s" depart="174" />
    <vehicle id="left_303" type="Car" route="s2n" depart="174" />
    <vehicle id="left_304" type="Car" route="s2n" depart="174" />
    <vehicle id="left_305" type="Car" route="s2n" depart="175" />
    <vehicle id="left_306" type="Car" route="s2n" depart="176" />
    <vehicle id="left_307" type="Car" route="s2n" depart="176" />
    <vehicle id="right_308" type="Car" route="n2s" depart="178" />
    <vehicle id="left_309" type="Car" route="s2n" depart="179" />
    <vehicle id="left_310" type="Car" route="s2n" depart="180" />
    <vehicle id="right_311" type="Car" route="n2s" depart="181" />
    <vehicle id="right_312" type="Car" route="n2s" depart="183" />
    <vehicle id="left_313" type="Car" route="s2n" depart="183" />
    <vehicle id="left_314" type="Car" route="s2n" depart="183" />
    <vehicle id="right_315" type="Car" route="n2s" depart="184" />
    <vehicle id="left_316" type="Car" route="s2n" depart="184" />
    <vehicle id="left_317" type="Car" route="s2n" depart="185" />
    <vehicle id="left_318" type="Car" route="s2n" depart="187" />
    <vehicle id="right_319" type="Car" route="n2s" depart="188" />
    <vehicle id="right_320" type="Car" route="n2s" depart="188" />
    <vehicle id="left_321" type="Car" route="s2n" depart="188" />
    <vehicle id="right_322" type="Car" route="n2s" depart="189" />
    <vehicle id="left_323" type="Car" route="s2n" depart="189" />
    <vehicle id="right_324" type="Car" route="n2s" depart="191" />
    <vehicle id="left_325" type="Car" route="s2n" depart="191" />
    <vehicle id="left_326" type="Car" route="s2n" depart="192" />
    <vehicle id="right_327" type="Car" route="n2s" depart="193" />
    <vehicle id="right_328" type="Car" route="n2s" depart="194" />
    <vehicle id="left_329" type="Car" route="s2n" depart="194" />
    <vehicle id="right_330" type="Car" route="n2s" depart="195" />
    <vehicle id="left_331" type="Car" route="s2n" depart="195" />
    <vehicle id="right_332" type="Car" route="n2s" depart="196" />
    <vehicle id="left_333" type="Car" route="s2n" depart="196" />
    <vehicle id="left_334" type="Car" route="s2n" depart="196" />
    <vehicle id="left_335" type="Car" route="s2n" depart="197" />
    <vehicle id="left_336" type="Car" route="s2n" depart="197" />
    <vehicle id="right_337" type="Car" route="n2s" depart="198" />
    <vehicle id="right_338" type="Car" route="n2s" depart="199" />
    <vehicle id="left_339" type="Car" route="s2n" depart="199" />
</routes>
