<routes>
            <vType accel="1.0" decel="5.0" id="Car" length="4.0" maxSpeed="20.0" sigma="0.0" departSpeed="13.89"/>
    
            <route id="n2s" edges="gneE2 -gneE3" />
            <route id="s2n" edges="gneE3 -gneE2" />
            <route id="w2e" edges="gneE0 -gneE1" />
    
            
    <vehicle id="right_0" type="Car" route="n2s" depart="1" />
    <vehicle id="right_1" type="Car" route="n2s" depart="3" />
    <vehicle id="left_2" type="Car" route="s2n" depart="4" />
    <vehicle id="right_3" type="Car" route="n2s" depart="6" />
    <vehicle id="ego" type="Car" route="w2e" depart="10" />
    <vehicle id="left_5" type="Car" route="s2n" depart="11" />
    <vehicle id="left_6" type="Car" route="s2n" depart="12" />
    <vehicle id="left_7" type="Car" route="s2n" depart="14" />
    <vehicle id="left_8" type="Car" route="s2n" depart="19" />
    <vehicle id="left_9" type="Car" route="s2n" depart="22" />
    <vehicle id="right_10" type="Car" route="n2s" depart="23" />
    <vehicle id="right_11" type="Car" route="n2s" depart="24" />
    <vehicle id="left_12" type="Car" route="s2n" depart="34" />
    <vehicle id="right_13" type="Car" route="n2s" depart="37" />
    <vehicle id="left_14" type="Car" route="s2n" depart="37" />
    <vehicle id="right_15" type="Car" route="n2s" depart="39" />
    <vehicle id="right_16" type="Car" route="n2s" depart="43" />
    <vehicle id="right_17" type="Car" route="n2s" depart="44" />
    <vehicle id="left_18" type="Car" route="s2n" depart="49" />
    <vehicle id="left_19" type="Car" route="s2n" depart="50" />
    <vehicle id="left_20" type="Car" route="s2n" depart="52" />
    <vehicle id="right_21" type="Car" route="n2s" depart="53" />
    <vehicle id="left_22" type="Car" route="s2n" depart="53" />
    <vehicle id="right_23" type="Car" route="n2s" depart="54" />
    <vehicle id="left_24" type="Car" route="s2n" depart="57" />
    <vehicle id="left_25" type="Car" route="s2n" depart="58" />
    <vehicle id="left_26" type="Car" route="s2n" depart="59" />
    <vehicle id="left_27" type="Car" route="s2n" depart="64" />
    <vehicle id="left_28" type="Car" route="s2n" depart="65" />
    <vehicle id="left_29" type="Car" route="s2n" depart="66" />
    <vehicle id="left_30" type="Car" route="s2n" depart="67" />
    <vehicle id="right_31" type="Car" route="n2s" depart="72" />
    <vehicle id="right_32" type="Car" route="n2s" depart="73" />
    <vehicle id="right_33" type="Car" route="n2s" depart="80" />
    <vehicle id="left_34" type="Car" route="s2n" depart="88" />
    <vehicle id="left_35" type="Car" route="s2n" depart="90" />
    <vehicle id="left_36" type="Car" route="s2n" depart="92" />
    <vehicle id="left_37" type="Car" route="s2n" depart="100" />
    <vehicle id="left_38" type="Car" route="s2n" depart="104" />
    <vehicle id="left_39" type="Car" route="s2n" depart="107" />
    <vehicle id="left_40" type="Car" route="s2n" depart="111" />
    <vehicle id="left_41" type="Car" route="s2n" depart="115" />
    <vehicle id="left_42" type="Car" route="s2n" depart="116" />
    <vehicle id="left_43" type="Car" route="s2n" depart="124" />
    <vehicle id="right_44" type="Car" route="n2s" depart="126" />
    <vehicle id="right_45" type="Car" route="n2s" depart="133" />
    <vehicle id="right_46" type="Car" route="n2s" depart="135" />
    <vehicle id="left_47" type="Car" route="s2n" depart="137" />
    <vehicle id="left_48" type="Car" route="s2n" depart="141" />
    <vehicle id="left_49" type="Car" route="s2n" depart="143" />
    <vehicle id="left_50" type="Car" route="s2n" depart="144" />
    <vehicle id="right_51" type="Car" route="n2s" depart="147" />
    <vehicle id="left_52" type="Car" route="s2n" depart="148" />
    <vehicle id="left_53" type="Car" route="s2n" depart="156" />
    <vehicle id="right_54" type="Car" route="n2s" depart="157" />
    <vehicle id="left_55" type="Car" route="s2n" depart="163" />
    <vehicle id="left_56" type="Car" route="s2n" depart="165" />
    <vehicle id="right_57" type="Car" route="n2s" depart="167" />
    <vehicle id="left_58" type="Car" route="s2n" depart="167" />
    <vehicle id="right_59" type="Car" route="n2s" depart="169" />
    <vehicle id="left_60" type="Car" route="s2n" depart="178" />
    <vehicle id="right_61" type="Car" route="n2s" depart="181" />
    <vehicle id="left_62" type="Car" route="s2n" depart="181" />
    <vehicle id="right_63" type="Car" route="n2s" depart="186" />
    <vehicle id="left_64" type="Car" route="s2n" depart="191" />
    <vehicle id="right_65" type="Car" route="n2s" depart="192" />
    <vehicle id="left_66" type="Car" route="s2n" depart="194" />
    <vehicle id="left_67" type="Car" route="s2n" depart="197" />
    <vehicle id="right_68" type="Car" route="n2s" depart="198" />
</routes>
