<routes>
            <vType accel="1.0" decel="5.0" id="Car" length="4.0" maxSpeed="20.0" sigma="0.0" departSpeed="13.89"/>
    
            <route id="n2s" edges="gneE2 -gneE3" />
            <route id="s2n" edges="gneE3 -gneE2" />
            <route id="w2e" edges="gneE0 -gneE1" />
    
            
    <vehicle id="right_0" type="Car" route="n2s" depart="0" />
    <vehicle id="right_1" type="Car" route="n2s" depart="7" />
    <vehicle id="right_2" type="Car" route="n2s" depart="8" />
    <vehicle id="left_3" type="Car" route="s2n" depart="8" />
    <vehicle id="ego" type="Car" route="w2e" depart="10" />
    <vehicle id="left_5" type="Car" route="s2n" depart="12" />
    <vehicle id="left_6" type="Car" route="s2n" depart="13" />
    <vehicle id="left_7" type="Car" route="s2n" depart="14" />
    <vehicle id="left_8" type="Car" route="s2n" depart="17" />
    <vehicle id="left_9" type="Car" route="s2n" depart="22" />
    <vehicle id="left_10" type="Car" route="s2n" depart="23" />
    <vehicle id="left_11" type="Car" route="s2n" depart="27" />
    <vehicle id="left_12" type="Car" route="s2n" depart="28" />
    <vehicle id="left_13" type="Car" route="s2n" depart="29" />
    <vehicle id="left_14" type="Car" route="s2n" depart="31" />
    <vehicle id="right_15" type="Car" route="n2s" depart="34" />
    <vehicle id="right_16" type="Car" route="n2s" depart="38" />
    <vehicle id="right_17" type="Car" route="n2s" depart="39" />
    <vehicle id="left_18" type="Car" route="s2n" depart="42" />
    <vehicle id="right_19" type="Car" route="n2s" depart="46" />
    <vehicle id="right_20" type="Car" route="n2s" depart="48" />
    <vehicle id="left_21" type="Car" route="s2n" depart="49" />
    <vehicle id="right_22" type="Car" route="n2s" depart="50" />
    <vehicle id="left_23" type="Car" route="s2n" depart="50" />
    <vehicle id="left_24" type="Car" route="s2n" depart="57" />
    <vehicle id="right_25" type="Car" route="n2s" depart="58" />
    <vehicle id="right_26" type="Car" route="n2s" depart="61" />
    <vehicle id="right_27" type="Car" route="n2s" depart="63" />
    <vehicle id="left_28" type="Car" route="s2n" depart="63" />
    <vehicle id="left_29" type="Car" route="s2n" depart="67" />
    <vehicle id="left_30" type="Car" route="s2n" depart="72" />
    <vehicle id="right_31" type="Car" route="n2s" depart="75" />
    <vehicle id="right_32" type="Car" route="n2s" depart="77" />
    <vehicle id="left_33" type="Car" route="s2n" depart="80" />
    <vehicle id="left_34" type="Car" route="s2n" depart="82" />
    <vehicle id="right_35" type="Car" route="n2s" depart="84" />
    <vehicle id="left_36" type="Car" route="s2n" depart="84" />
    <vehicle id="right_37" type="Car" route="n2s" depart="85" />
    <vehicle id="right_38" type="Car" route="n2s" depart="88" />
    <vehicle id="left_39" type="Car" route="s2n" depart="90" />
    <vehicle id="right_40" type="Car" route="n2s" depart="94" />
    <vehicle id="left_41" type="Car" route="s2n" depart="96" />
    <vehicle id="right_42" type="Car" route="n2s" depart="100" />
    <vehicle id="right_43" type="Car" route="n2s" depart="102" />
    <vehicle id="left_44" type="Car" route="s2n" depart="104" />
    <vehicle id="left_45" type="Car" route="s2n" depart="107" />
    <vehicle id="right_46" type="Car" route="n2s" depart="109" />
    <vehicle id="right_47" type="Car" route="n2s" depart="114" />
    <vehicle id="left_48" type="Car" route="s2n" depart="114" />
    <vehicle id="right_49" type="Car" route="n2s" depart="119" />
    <vehicle id="left_50" type="Car" route="s2n" depart="121" />
    <vehicle id="left_51" type="Car" route="s2n" depart="127" />
    <vehicle id="left_52" type="Car" route="s2n" depart="128" />
    <vehicle id="right_53" type="Car" route="n2s" depart="130" />
    <vehicle id="left_54" type="Car" route="s2n" depart="134" />
    <vehicle id="right_55" type="Car" route="n2s" depart="135" />
    <vehicle id="right_56" type="Car" route="n2s" depart="142" />
    <vehicle id="left_57" type="Car" route="s2n" depart="152" />
    <vehicle id="right_58" type="Car" route="n2s" depart="161" />
    <vehicle id="right_59" type="Car" route="n2s" depart="162" />
    <vehicle id="left_60" type="Car" route="s2n" depart="163" />
    <vehicle id="right_61" type="Car" route="n2s" depart="167" />
    <vehicle id="right_62" type="Car" route="n2s" depart="174" />
    <vehicle id="left_63" type="Car" route="s2n" depart="174" />
    <vehicle id="right_64" type="Car" route="n2s" depart="175" />
    <vehicle id="right_65" type="Car" route="n2s" depart="179" />
    <vehicle id="right_66" type="Car" route="n2s" depart="182" />
    <vehicle id="right_67" type="Car" route="n2s" depart="184" />
    <vehicle id="right_68" type="Car" route="n2s" depart="189" />
    <vehicle id="right_69" type="Car" route="n2s" depart="192" />
</routes>
