<routes>
            <vType accel="1.0" decel="5.0" id="Car" length="4.0" maxSpeed="100.0" sigma="0.0" departSpeed="13.89"/>
    
            <route id="n2s" edges="gneE2 -gneE3" />
            <route id="s2n" edges="gneE3 -gneE2" />
            <route id="w2e" edges="gneE0 -gneE1" />
    
            
    <vehicle id="right_0" type="Car" route="n2s" depart="4" />
    <vehicle id="right_1" type="Car" route="n2s" depart="6" />
    <vehicle id="ego" type="Car" route="w2e" depart="10" />
    <vehicle id="right_3" type="Car" route="n2s" depart="11" />
    <vehicle id="left_4" type="Car" route="s2n" depart="11" />
    <vehicle id="right_5" type="Car" route="n2s" depart="14" />
    <vehicle id="right_6" type="Car" route="n2s" depart="17" />
    <vehicle id="right_7" type="Car" route="n2s" depart="18" />
    <vehicle id="right_8" type="Car" route="n2s" depart="26" />
    <vehicle id="right_9" type="Car" route="n2s" depart="28" />
    <vehicle id="right_10" type="Car" route="n2s" depart="40" />
    <vehicle id="left_11" type="Car" route="s2n" depart="40" />
    <vehicle id="left_12" type="Car" route="s2n" depart="43" />
    <vehicle id="left_13" type="Car" route="s2n" depart="44" />
    <vehicle id="right_14" type="Car" route="n2s" depart="46" />
    <vehicle id="right_15" type="Car" route="n2s" depart="47" />
    <vehicle id="left_16" type="Car" route="s2n" depart="54" />
    <vehicle id="right_17" type="Car" route="n2s" depart="55" />
    <vehicle id="right_18" type="Car" route="n2s" depart="57" />
    <vehicle id="left_19" type="Car" route="s2n" depart="62" />
    <vehicle id="left_20" type="Car" route="s2n" depart="66" />
    <vehicle id="right_21" type="Car" route="n2s" depart="74" />
    <vehicle id="left_22" type="Car" route="s2n" depart="75" />
    <vehicle id="left_23" type="Car" route="s2n" depart="78" />
    <vehicle id="right_24" type="Car" route="n2s" depart="80" />
    <vehicle id="right_25" type="Car" route="n2s" depart="84" />
    <vehicle id="right_26" type="Car" route="n2s" depart="93" />
    <vehicle id="right_27" type="Car" route="n2s" depart="98" />
    <vehicle id="right_28" type="Car" route="n2s" depart="100" />
    <vehicle id="left_29" type="Car" route="s2n" depart="104" />
    <vehicle id="left_30" type="Car" route="s2n" depart="106" />
    <vehicle id="right_31" type="Car" route="n2s" depart="110" />
    <vehicle id="right_32" type="Car" route="n2s" depart="118" />
    <vehicle id="right_33" type="Car" route="n2s" depart="124" />
    <vehicle id="left_34" type="Car" route="s2n" depart="126" />
    <vehicle id="left_35" type="Car" route="s2n" depart="129" />
    <vehicle id="right_36" type="Car" route="n2s" depart="131" />
    <vehicle id="right_37" type="Car" route="n2s" depart="132" />
    <vehicle id="right_38" type="Car" route="n2s" depart="136" />
    <vehicle id="left_39" type="Car" route="s2n" depart="139" />
    <vehicle id="right_40" type="Car" route="n2s" depart="142" />
    <vehicle id="right_41" type="Car" route="n2s" depart="149" />
    <vehicle id="left_42" type="Car" route="s2n" depart="156" />
    <vehicle id="right_43" type="Car" route="n2s" depart="160" />
    <vehicle id="left_44" type="Car" route="s2n" depart="162" />
    <vehicle id="left_45" type="Car" route="s2n" depart="163" />
    <vehicle id="left_46" type="Car" route="s2n" depart="167" />
    <vehicle id="left_47" type="Car" route="s2n" depart="172" />
    <vehicle id="right_48" type="Car" route="n2s" depart="177" />
    <vehicle id="right_49" type="Car" route="n2s" depart="178" />
    <vehicle id="right_50" type="Car" route="n2s" depart="180" />
    <vehicle id="left_51" type="Car" route="s2n" depart="183" />
    <vehicle id="right_52" type="Car" route="n2s" depart="185" />
    <vehicle id="left_53" type="Car" route="s2n" depart="189" />
    <vehicle id="left_54" type="Car" route="s2n" depart="192" />
    <vehicle id="right_55" type="Car" route="n2s" depart="198" />
    <vehicle id="left_56" type="Car" route="s2n" depart="199" />
</routes>
