<routes>
            <vType accel="1.0" decel="5.0" id="Car" length="4.0" maxSpeed="20.0" sigma="0.0" departSpeed="13.89"/>
    
            <route id="n2s" edges="gneE2 -gneE3" />
            <route id="s2n" edges="gneE3 -gneE2" />
            <route id="w2e" edges="gneE0 -gneE1" />
    
            
    <vehicle id="right_0" type="Car" route="n2s" depart="4" />
    <vehicle id="left_1" type="Car" route="s2n" depart="6" />
    <vehicle id="ego" type="Car" route="w2e" depart="10" />
    <vehicle id="left_3" type="Car" route="s2n" depart="10" />
    <vehicle id="right_4" type="Car" route="n2s" depart="11" />
    <vehicle id="left_5" type="Car" route="s2n" depart="17" />
    <vehicle id="right_6" type="Car" route="n2s" depart="18" />
    <vehicle id="left_7" type="Car" route="s2n" depart="23" />
    <vehicle id="right_8" type="Car" route="n2s" depart="29" />
    <vehicle id="left_9" type="Car" route="s2n" depart="32" />
    <vehicle id="right_10" type="Car" route="n2s" depart="34" />
    <vehicle id="right_11" type="Car" route="n2s" depart="41" />
    <vehicle id="right_12" type="Car" route="n2s" depart="45" />
    <vehicle id="left_13" type="Car" route="s2n" depart="46" />
    <vehicle id="left_14" type="Car" route="s2n" depart="49" />
    <vehicle id="right_15" type="Car" route="n2s" depart="51" />
    <vehicle id="right_16" type="Car" route="n2s" depart="56" />
    <vehicle id="left_17" type="Car" route="s2n" depart="57" />
    <vehicle id="left_18" type="Car" route="s2n" depart="58" />
    <vehicle id="left_19" type="Car" route="s2n" depart="60" />
    <vehicle id="left_20" type="Car" route="s2n" depart="61" />
    <vehicle id="left_21" type="Car" route="s2n" depart="62" />
    <vehicle id="right_22" type="Car" route="n2s" depart="63" />
    <vehicle id="left_23" type="Car" route="s2n" depart="63" />
    <vehicle id="right_24" type="Car" route="n2s" depart="66" />
    <vehicle id="left_25" type="Car" route="s2n" depart="66" />
    <vehicle id="right_26" type="Car" route="n2s" depart="67" />
    <vehicle id="left_27" type="Car" route="s2n" depart="68" />
    <vehicle id="right_28" type="Car" route="n2s" depart="73" />
    <vehicle id="left_29" type="Car" route="s2n" depart="73" />
    <vehicle id="right_30" type="Car" route="n2s" depart="85" />
    <vehicle id="left_31" type="Car" route="s2n" depart="91" />
    <vehicle id="right_32" type="Car" route="n2s" depart="92" />
    <vehicle id="right_33" type="Car" route="n2s" depart="98" />
    <vehicle id="left_34" type="Car" route="s2n" depart="103" />
    <vehicle id="left_35" type="Car" route="s2n" depart="104" />
    <vehicle id="left_36" type="Car" route="s2n" depart="105" />
    <vehicle id="right_37" type="Car" route="n2s" depart="108" />
    <vehicle id="right_38" type="Car" route="n2s" depart="116" />
    <vehicle id="left_39" type="Car" route="s2n" depart="116" />
    <vehicle id="left_40" type="Car" route="s2n" depart="118" />
    <vehicle id="left_41" type="Car" route="s2n" depart="120" />
    <vehicle id="right_42" type="Car" route="n2s" depart="122" />
    <vehicle id="right_43" type="Car" route="n2s" depart="123" />
    <vehicle id="right_44" type="Car" route="n2s" depart="125" />
    <vehicle id="left_45" type="Car" route="s2n" depart="128" />
    <vehicle id="left_46" type="Car" route="s2n" depart="130" />
    <vehicle id="right_47" type="Car" route="n2s" depart="135" />
    <vehicle id="right_48" type="Car" route="n2s" depart="136" />
    <vehicle id="right_49" type="Car" route="n2s" depart="137" />
    <vehicle id="right_50" type="Car" route="n2s" depart="138" />
    <vehicle id="left_51" type="Car" route="s2n" depart="139" />
    <vehicle id="left_52" type="Car" route="s2n" depart="144" />
    <vehicle id="left_53" type="Car" route="s2n" depart="147" />
    <vehicle id="left_54" type="Car" route="s2n" depart="148" />
    <vehicle id="left_55" type="Car" route="s2n" depart="149" />
    <vehicle id="left_56" type="Car" route="s2n" depart="150" />
    <vehicle id="right_57" type="Car" route="n2s" depart="151" />
    <vehicle id="left_58" type="Car" route="s2n" depart="152" />
    <vehicle id="left_59" type="Car" route="s2n" depart="156" />
    <vehicle id="right_60" type="Car" route="n2s" depart="159" />
    <vehicle id="right_61" type="Car" route="n2s" depart="161" />
    <vehicle id="left_62" type="Car" route="s2n" depart="161" />
    <vehicle id="right_63" type="Car" route="n2s" depart="162" />
    <vehicle id="left_64" type="Car" route="s2n" depart="163" />
    <vehicle id="left_65" type="Car" route="s2n" depart="164" />
    <vehicle id="right_66" type="Car" route="n2s" depart="166" />
    <vehicle id="left_67" type="Car" route="s2n" depart="170" />
    <vehicle id="right_68" type="Car" route="n2s" depart="178" />
    <vehicle id="left_69" type="Car" route="s2n" depart="179" />
    <vehicle id="left_70" type="Car" route="s2n" depart="180" />
    <vehicle id="right_71" type="Car" route="n2s" depart="181" />
    <vehicle id="left_72" type="Car" route="s2n" depart="183" />
    <vehicle id="left_73" type="Car" route="s2n" depart="187" />
    <vehicle id="right_74" type="Car" route="n2s" depart="188" />
    <vehicle id="left_75" type="Car" route="s2n" depart="188" />
    <vehicle id="right_76" type="Car" route="n2s" depart="190" />
    <vehicle id="left_77" type="Car" route="s2n" depart="195" />
</routes>
