<routes>
            <vType accel="1.0" decel="5.0" id="Car" length="4.0" maxSpeed="20.0" sigma="0.0" departSpeed="13.89"/>
    
            <route id="n2s" edges="gneE2 -gneE3" />
            <route id="s2n" edges="gneE3 -gneE2" />
            <route id="w2e" edges="gneE0 -gneE1" />
    
            
    <vehicle id="right_0" type="Car" route="n2s" depart="0" />
    <vehicle id="right_1" type="Car" route="n2s" depart="1" />
    <vehicle id="right_2" type="Car" route="n2s" depart="3" />
    <vehicle id="right_3" type="Car" route="n2s" depart="10" />
    <vehicle id="ego" type="Car" route="w2e" depart="10" />
    <vehicle id="left_5" type="Car" route="s2n" depart="12" />
    <vehicle id="right_6" type="Car" route="n2s" depart="14" />
    <vehicle id="left_7" type="Car" route="s2n" depart="14" />
    <vehicle id="right_8" type="Car" route="n2s" depart="16" />
    <vehicle id="left_9" type="Car" route="s2n" depart="22" />
    <vehicle id="left_10" type="Car" route="s2n" depart="26" />
    <vehicle id="right_11" type="Car" route="n2s" depart="28" />
    <vehicle id="right_12" type="Car" route="n2s" depart="31" />
    <vehicle id="right_13" type="Car" route="n2s" depart="35" />
    <vehicle id="right_14" type="Car" route="n2s" depart="36" />
    <vehicle id="right_15" type="Car" route="n2s" depart="37" />
    <vehicle id="left_16" type="Car" route="s2n" depart="37" />
    <vehicle id="left_17" type="Car" route="s2n" depart="38" />
    <vehicle id="left_18" type="Car" route="s2n" depart="42" />
    <vehicle id="right_19" type="Car" route="n2s" depart="43" />
    <vehicle id="left_20" type="Car" route="s2n" depart="45" />
    <vehicle id="left_21" type="Car" route="s2n" depart="48" />
    <vehicle id="right_22" type="Car" route="n2s" depart="49" />
    <vehicle id="right_23" type="Car" route="n2s" depart="50" />
    <vehicle id="left_24" type="Car" route="s2n" depart="53" />
    <vehicle id="right_25" type="Car" route="n2s" depart="54" />
    <vehicle id="left_26" type="Car" route="s2n" depart="55" />
    <vehicle id="right_27" type="Car" route="n2s" depart="57" />
    <vehicle id="left_28" type="Car" route="s2n" depart="57" />
    <vehicle id="right_29" type="Car" route="n2s" depart="63" />
    <vehicle id="right_30" type="Car" route="n2s" depart="65" />
    <vehicle id="right_31" type="Car" route="n2s" depart="66" />
    <vehicle id="left_32" type="Car" route="s2n" depart="69" />
    <vehicle id="right_33" type="Car" route="n2s" depart="79" />
    <vehicle id="left_34" type="Car" route="s2n" depart="79" />
    <vehicle id="right_35" type="Car" route="n2s" depart="80" />
    <vehicle id="right_36" type="Car" route="n2s" depart="84" />
    <vehicle id="left_37" type="Car" route="s2n" depart="84" />
    <vehicle id="right_38" type="Car" route="n2s" depart="85" />
    <vehicle id="right_39" type="Car" route="n2s" depart="86" />
    <vehicle id="right_40" type="Car" route="n2s" depart="88" />
    <vehicle id="left_41" type="Car" route="s2n" depart="91" />
    <vehicle id="right_42" type="Car" route="n2s" depart="92" />
    <vehicle id="left_43" type="Car" route="s2n" depart="92" />
    <vehicle id="right_44" type="Car" route="n2s" depart="99" />
    <vehicle id="right_45" type="Car" route="n2s" depart="105" />
    <vehicle id="right_46" type="Car" route="n2s" depart="106" />
    <vehicle id="left_47" type="Car" route="s2n" depart="111" />
    <vehicle id="right_48" type="Car" route="n2s" depart="114" />
    <vehicle id="right_49" type="Car" route="n2s" depart="115" />
    <vehicle id="left_50" type="Car" route="s2n" depart="115" />
    <vehicle id="right_51" type="Car" route="n2s" depart="116" />
    <vehicle id="left_52" type="Car" route="s2n" depart="116" />
    <vehicle id="left_53" type="Car" route="s2n" depart="117" />
    <vehicle id="left_54" type="Car" route="s2n" depart="121" />
    <vehicle id="right_55" type="Car" route="n2s" depart="122" />
    <vehicle id="left_56" type="Car" route="s2n" depart="122" />
    <vehicle id="left_57" type="Car" route="s2n" depart="124" />
    <vehicle id="right_58" type="Car" route="n2s" depart="128" />
    <vehicle id="right_59" type="Car" route="n2s" depart="131" />
    <vehicle id="right_60" type="Car" route="n2s" depart="134" />
    <vehicle id="left_61" type="Car" route="s2n" depart="136" />
    <vehicle id="left_62" type="Car" route="s2n" depart="139" />
    <vehicle id="left_63" type="Car" route="s2n" depart="146" />
    <vehicle id="right_64" type="Car" route="n2s" depart="148" />
    <vehicle id="left_65" type="Car" route="s2n" depart="148" />
    <vehicle id="left_66" type="Car" route="s2n" depart="150" />
    <vehicle id="right_67" type="Car" route="n2s" depart="151" />
    <vehicle id="left_68" type="Car" route="s2n" depart="151" />
    <vehicle id="right_69" type="Car" route="n2s" depart="154" />
    <vehicle id="right_70" type="Car" route="n2s" depart="155" />
    <vehicle id="right_71" type="Car" route="n2s" depart="156" />
    <vehicle id="right_72" type="Car" route="n2s" depart="157" />
    <vehicle id="right_73" type="Car" route="n2s" depart="159" />
    <vehicle id="right_74" type="Car" route="n2s" depart="166" />
    <vehicle id="right_75" type="Car" route="n2s" depart="170" />
    <vehicle id="right_76" type="Car" route="n2s" depart="173" />
    <vehicle id="right_77" type="Car" route="n2s" depart="175" />
    <vehicle id="left_78" type="Car" route="s2n" depart="181" />
    <vehicle id="left_79" type="Car" route="s2n" depart="183" />
    <vehicle id="right_80" type="Car" route="n2s" depart="186" />
    <vehicle id="left_81" type="Car" route="s2n" depart="186" />
    <vehicle id="right_82" type="Car" route="n2s" depart="190" />
    <vehicle id="left_83" type="Car" route="s2n" depart="190" />
    <vehicle id="left_84" type="Car" route="s2n" depart="191" />
    <vehicle id="left_85" type="Car" route="s2n" depart="196" />
    <vehicle id="right_86" type="Car" route="n2s" depart="197" />
</routes>
