<configuration>
    <input>
        <net-file value="one_lane.net.xml"/>
        <route-files value="one_lane3.rou.xml"/>
        <gui-settings-file value="one_lane.settings.xml"/>
    </input>
    <time>
        <begin value="0"/>
        <end value="40"/>
        <step-length value="1" />
    </time>
</configuration>
