<routes>
            <vType accel="1.0" decel="5.0" id="Car" length="4.0" maxSpeed="100.0" sigma="0.0" departSpeed="13.89"/>
    
            <route id="n2s" edges="gneE2 -gneE3" />
            <route id="s2n" edges="gneE3 -gneE2" />
            <route id="w2e" edges="gneE0 -gneE1" />
    
            
    <vehicle id="left_0" type="Car" route="s2n" depart="4" />
    <vehicle id="ego" type="Car" route="w2e" depart="10" />
    <vehicle id="left_2" type="Car" route="s2n" depart="16" />
    <vehicle id="right_3" type="Car" route="n2s" depart="24" />
    <vehicle id="right_4" type="Car" route="n2s" depart="25" />
    <vehicle id="left_5" type="Car" route="s2n" depart="30" />
    <vehicle id="right_6" type="Car" route="n2s" depart="32" />
    <vehicle id="left_7" type="Car" route="s2n" depart="34" />
    <vehicle id="right_8" type="Car" route="n2s" depart="48" />
    <vehicle id="right_9" type="Car" route="n2s" depart="50" />
    <vehicle id="right_10" type="Car" route="n2s" depart="55" />
    <vehicle id="left_11" type="Car" route="s2n" depart="57" />
    <vehicle id="right_12" type="Car" route="n2s" depart="59" />
    <vehicle id="right_13" type="Car" route="n2s" depart="70" />
    <vehicle id="right_14" type="Car" route="n2s" depart="73" />
    <vehicle id="left_15" type="Car" route="s2n" depart="76" />
    <vehicle id="right_16" type="Car" route="n2s" depart="80" />
    <vehicle id="right_17" type="Car" route="n2s" depart="83" />
    <vehicle id="left_18" type="Car" route="s2n" depart="85" />
    <vehicle id="right_19" type="Car" route="n2s" depart="88" />
    <vehicle id="left_20" type="Car" route="s2n" depart="96" />
    <vehicle id="left_21" type="Car" route="s2n" depart="99" />
    <vehicle id="right_22" type="Car" route="n2s" depart="101" />
    <vehicle id="right_23" type="Car" route="n2s" depart="103" />
    <vehicle id="left_24" type="Car" route="s2n" depart="105" />
    <vehicle id="right_25" type="Car" route="n2s" depart="107" />
    <vehicle id="right_26" type="Car" route="n2s" depart="109" />
    <vehicle id="right_27" type="Car" route="n2s" depart="116" />
    <vehicle id="right_28" type="Car" route="n2s" depart="117" />
    <vehicle id="left_29" type="Car" route="s2n" depart="130" />
    <vehicle id="right_30" type="Car" route="n2s" depart="131" />
    <vehicle id="right_31" type="Car" route="n2s" depart="132" />
    <vehicle id="right_32" type="Car" route="n2s" depart="133" />
    <vehicle id="left_33" type="Car" route="s2n" depart="134" />
    <vehicle id="right_34" type="Car" route="n2s" depart="141" />
    <vehicle id="right_35" type="Car" route="n2s" depart="143" />
    <vehicle id="right_36" type="Car" route="n2s" depart="147" />
    <vehicle id="right_37" type="Car" route="n2s" depart="158" />
    <vehicle id="right_38" type="Car" route="n2s" depart="162" />
    <vehicle id="right_39" type="Car" route="n2s" depart="170" />
    <vehicle id="right_40" type="Car" route="n2s" depart="171" />
    <vehicle id="left_41" type="Car" route="s2n" depart="171" />
    <vehicle id="right_42" type="Car" route="n2s" depart="176" />
    <vehicle id="right_43" type="Car" route="n2s" depart="177" />
    <vehicle id="right_44" type="Car" route="n2s" depart="180" />
    <vehicle id="right_45" type="Car" route="n2s" depart="181" />
    <vehicle id="right_46" type="Car" route="n2s" depart="184" />
    <vehicle id="right_47" type="Car" route="n2s" depart="185" />
    <vehicle id="right_48" type="Car" route="n2s" depart="187" />
    <vehicle id="left_49" type="Car" route="s2n" depart="187" />
    <vehicle id="right_50" type="Car" route="n2s" depart="191" />
    <vehicle id="right_51" type="Car" route="n2s" depart="199" />
</routes>
