<routes>
            <vType accel="1.0" decel="5.0" id="Car" length="4.0" maxSpeed="20.0" sigma="0.0" departSpeed="13.89"/>
    
            <route id="n2s" edges="gneE2 -gneE3" />
            <route id="s2n" edges="gneE3 -gneE2" />
            <route id="w2e" edges="gneE0 -gneE1" />
    
            
    <vehicle id="left_0" type="Car" route="s2n" depart="0" />
    <vehicle id="right_1" type="Car" route="n2s" depart="6" />
    <vehicle id="left_2" type="Car" route="s2n" depart="8" />
    <vehicle id="ego" type="Car" route="w2e" depart="10" />
    <vehicle id="right_4" type="Car" route="n2s" depart="19" />
    <vehicle id="left_5" type="Car" route="s2n" depart="20" />
    <vehicle id="right_6" type="Car" route="n2s" depart="22" />
    <vehicle id="right_7" type="Car" route="n2s" depart="24" />
    <vehicle id="left_8" type="Car" route="s2n" depart="31" />
    <vehicle id="right_9" type="Car" route="n2s" depart="34" />
    <vehicle id="left_10" type="Car" route="s2n" depart="39" />
    <vehicle id="right_11" type="Car" route="n2s" depart="44" />
    <vehicle id="left_12" type="Car" route="s2n" depart="49" />
    <vehicle id="right_13" type="Car" route="n2s" depart="56" />
    <vehicle id="left_14" type="Car" route="s2n" depart="57" />
    <vehicle id="left_15" type="Car" route="s2n" depart="64" />
    <vehicle id="right_16" type="Car" route="n2s" depart="69" />
    <vehicle id="left_17" type="Car" route="s2n" depart="71" />
    <vehicle id="right_18" type="Car" route="n2s" depart="72" />
    <vehicle id="right_19" type="Car" route="n2s" depart="77" />
    <vehicle id="right_20" type="Car" route="n2s" depart="92" />
    <vehicle id="left_21" type="Car" route="s2n" depart="92" />
    <vehicle id="left_22" type="Car" route="s2n" depart="95" />
    <vehicle id="left_23" type="Car" route="s2n" depart="100" />
    <vehicle id="right_24" type="Car" route="n2s" depart="101" />
    <vehicle id="left_25" type="Car" route="s2n" depart="102" />
    <vehicle id="right_26" type="Car" route="n2s" depart="103" />
    <vehicle id="left_27" type="Car" route="s2n" depart="103" />
    <vehicle id="left_28" type="Car" route="s2n" depart="112" />
    <vehicle id="right_29" type="Car" route="n2s" depart="119" />
    <vehicle id="left_30" type="Car" route="s2n" depart="120" />
    <vehicle id="right_31" type="Car" route="n2s" depart="129" />
    <vehicle id="left_32" type="Car" route="s2n" depart="134" />
    <vehicle id="right_33" type="Car" route="n2s" depart="137" />
    <vehicle id="left_34" type="Car" route="s2n" depart="137" />
    <vehicle id="right_35" type="Car" route="n2s" depart="141" />
    <vehicle id="left_36" type="Car" route="s2n" depart="141" />
    <vehicle id="left_37" type="Car" route="s2n" depart="143" />
    <vehicle id="left_38" type="Car" route="s2n" depart="149" />
    <vehicle id="left_39" type="Car" route="s2n" depart="152" />
    <vehicle id="right_40" type="Car" route="n2s" depart="155" />
    <vehicle id="right_41" type="Car" route="n2s" depart="156" />
    <vehicle id="left_42" type="Car" route="s2n" depart="165" />
    <vehicle id="left_43" type="Car" route="s2n" depart="166" />
    <vehicle id="left_44" type="Car" route="s2n" depart="169" />
    <vehicle id="left_45" type="Car" route="s2n" depart="171" />
    <vehicle id="left_46" type="Car" route="s2n" depart="172" />
    <vehicle id="right_47" type="Car" route="n2s" depart="173" />
    <vehicle id="right_48" type="Car" route="n2s" depart="175" />
    <vehicle id="left_49" type="Car" route="s2n" depart="182" />
    <vehicle id="right_50" type="Car" route="n2s" depart="185" />
    <vehicle id="left_51" type="Car" route="s2n" depart="185" />
    <vehicle id="right_52" type="Car" route="n2s" depart="192" />
    <vehicle id="left_53" type="Car" route="s2n" depart="194" />
    <vehicle id="left_54" type="Car" route="s2n" depart="197" />
    <vehicle id="right_55" type="Car" route="n2s" depart="199" />
</routes>
