<routes>
            <vType accel="1.0" decel="5.0" id="Car" length="4.0" maxSpeed="100.0" sigma="0.0" departSpeed="13.89"/>
    
            <route id="n2s" edges="gneE2 -gneE3" />
            <route id="s2n" edges="gneE3 -gneE2" />
            <route id="w2e" edges="gneE0 -gneE1" />
    
            
    <vehicle id="left_0" type="Car" route="s2n" depart="2" />
    <vehicle id="left_1" type="Car" route="s2n" depart="8" />
    <vehicle id="ego" type="Car" route="w2e" depart="10" />
    <vehicle id="right_3" type="Car" route="n2s" depart="11" />
    <vehicle id="left_4" type="Car" route="s2n" depart="14" />
    <vehicle id="right_5" type="Car" route="n2s" depart="17" />
    <vehicle id="left_6" type="Car" route="s2n" depart="19" />
    <vehicle id="left_7" type="Car" route="s2n" depart="20" />
    <vehicle id="left_8" type="Car" route="s2n" depart="22" />
    <vehicle id="right_9" type="Car" route="n2s" depart="24" />
    <vehicle id="right_10" type="Car" route="n2s" depart="30" />
    <vehicle id="left_11" type="Car" route="s2n" depart="30" />
    <vehicle id="right_12" type="Car" route="n2s" depart="31" />
    <vehicle id="right_13" type="Car" route="n2s" depart="32" />
    <vehicle id="left_14" type="Car" route="s2n" depart="32" />
    <vehicle id="left_15" type="Car" route="s2n" depart="33" />
    <vehicle id="left_16" type="Car" route="s2n" depart="34" />
    <vehicle id="left_17" type="Car" route="s2n" depart="36" />
    <vehicle id="left_18" type="Car" route="s2n" depart="37" />
    <vehicle id="left_19" type="Car" route="s2n" depart="40" />
    <vehicle id="left_20" type="Car" route="s2n" depart="42" />
    <vehicle id="left_21" type="Car" route="s2n" depart="47" />
    <vehicle id="left_22" type="Car" route="s2n" depart="49" />
    <vehicle id="right_23" type="Car" route="n2s" depart="58" />
    <vehicle id="left_24" type="Car" route="s2n" depart="63" />
    <vehicle id="left_25" type="Car" route="s2n" depart="69" />
    <vehicle id="left_26" type="Car" route="s2n" depart="70" />
    <vehicle id="right_27" type="Car" route="n2s" depart="73" />
    <vehicle id="left_28" type="Car" route="s2n" depart="75" />
    <vehicle id="left_29" type="Car" route="s2n" depart="77" />
    <vehicle id="right_30" type="Car" route="n2s" depart="78" />
    <vehicle id="left_31" type="Car" route="s2n" depart="79" />
    <vehicle id="right_32" type="Car" route="n2s" depart="80" />
    <vehicle id="left_33" type="Car" route="s2n" depart="81" />
    <vehicle id="left_34" type="Car" route="s2n" depart="82" />
    <vehicle id="right_35" type="Car" route="n2s" depart="86" />
    <vehicle id="right_36" type="Car" route="n2s" depart="91" />
    <vehicle id="left_37" type="Car" route="s2n" depart="93" />
    <vehicle id="left_38" type="Car" route="s2n" depart="94" />
    <vehicle id="left_39" type="Car" route="s2n" depart="95" />
    <vehicle id="left_40" type="Car" route="s2n" depart="96" />
    <vehicle id="left_41" type="Car" route="s2n" depart="98" />
    <vehicle id="right_42" type="Car" route="n2s" depart="99" />
    <vehicle id="right_43" type="Car" route="n2s" depart="106" />
    <vehicle id="left_44" type="Car" route="s2n" depart="112" />
    <vehicle id="right_45" type="Car" route="n2s" depart="120" />
    <vehicle id="left_46" type="Car" route="s2n" depart="120" />
    <vehicle id="left_47" type="Car" route="s2n" depart="124" />
    <vehicle id="right_48" type="Car" route="n2s" depart="125" />
    <vehicle id="right_49" type="Car" route="n2s" depart="126" />
    <vehicle id="left_50" type="Car" route="s2n" depart="128" />
    <vehicle id="left_51" type="Car" route="s2n" depart="129" />
    <vehicle id="left_52" type="Car" route="s2n" depart="135" />
    <vehicle id="left_53" type="Car" route="s2n" depart="141" />
    <vehicle id="left_54" type="Car" route="s2n" depart="142" />
    <vehicle id="left_55" type="Car" route="s2n" depart="158" />
    <vehicle id="left_56" type="Car" route="s2n" depart="162" />
    <vehicle id="left_57" type="Car" route="s2n" depart="164" />
    <vehicle id="left_58" type="Car" route="s2n" depart="165" />
    <vehicle id="left_59" type="Car" route="s2n" depart="169" />
    <vehicle id="right_60" type="Car" route="n2s" depart="171" />
    <vehicle id="left_61" type="Car" route="s2n" depart="172" />
    <vehicle id="right_62" type="Car" route="n2s" depart="173" />
    <vehicle id="left_63" type="Car" route="s2n" depart="174" />
    <vehicle id="right_64" type="Car" route="n2s" depart="177" />
    <vehicle id="left_65" type="Car" route="s2n" depart="179" />
    <vehicle id="right_66" type="Car" route="n2s" depart="181" />
    <vehicle id="left_67" type="Car" route="s2n" depart="182" />
    <vehicle id="left_68" type="Car" route="s2n" depart="188" />
    <vehicle id="left_69" type="Car" route="s2n" depart="190" />
</routes>
