<configuration>
    <input>
        <net-file value="one_intersection_w_priority.net.xml"/>
        <route-files value="one_intersection_w_priority.rou.xml"/>
        <gui-settings-file value="one_intersection_w_priority.settings.xml"/>
    </input>
    <time>
        <begin value="0"/>
        <end value="40"/>
        <step-length value="0.2" />
    </time>
</configuration>
